<?xml version="1.0" encoding="UTF-8"?>

<!-- generated on 2022-07-05 08:28:07 by Eclipse SUMO duarouter Version 1.12.0
<configuration xmlns:xsi="http://www.w3.org/2001/XMLSchema-instance" xsi:noNamespaceSchemaLocation="http://sumo.dlr.de/xsd/duarouterConfiguration.xsd">

    <input>
        <net-file value="./net_config/san-francisco.net.xml"/>
        <route-files value="trips.trips.xml"/>
    </input>

    <output>
        <output-file value="trips.trips.xml.tmp"/>
        <write-trips value="true"/>
    </output>

    <time>
        <begin value="0"/>
        <end value="7200"/>
    </time>

    <report>
        <no-warnings value="true"/>
        <ignore-errors value="true"/>
        <no-step-log value="true"/>
    </report>

</configuration>
-->

<routes xmlns:xsi="http://www.w3.org/2001/XMLSchema-instance" xsi:noNamespaceSchemaLocation="http://sumo.dlr.de/xsd/routes_file.xsd">
    <trip id="0" depart="0.00" from="398070547#0" to="-147415742#1"/>
    <trip id="1" depart="1.00" from="-8916496#1" to="-676716697"/>
    <trip id="2" depart="2.00" from="514407369#1" to="425516688"/>
    <trip id="3" depart="3.00" from="8917292" to="-255178101#1"/>
    <trip id="4" depart="4.00" from="148846995#0" to="-155373689"/>
    <trip id="5" depart="5.00" from="-619568432" to="255170264"/>
    <trip id="6" depart="6.00" from="-147496080#0" to="-513726808#1"/>
    <trip id="7" depart="7.00" from="403991267#0" to="276171456"/>
    <trip id="8" depart="8.00" from="-620728103#4" to="32929982#11"/>
    <trip id="9" depart="9.00" from="706551788#1" to="-108194449#5"/>
    <trip id="10" depart="10.00" from="70051604#0" to="465209329#1"/>
    <trip id="11" depart="11.00" from="-8920563#1" to="-41380022"/>
    <trip id="12" depart="12.00" from="8921049#0" to="-8920645#1"/>
    <trip id="13" depart="13.00" from="-255351706#1" to="-262937969#5"/>
    <trip id="14" depart="14.00" from="86289459#1" to="396947818"/>
    <trip id="15" depart="15.00" from="706532924" to="513707473#1"/>
    <trip id="16" depart="16.00" from="27028360#0" to="8922858#0"/>
    <trip id="17" depart="17.00" from="101153945#3" to="283529409#1"/>
    <trip id="18" depart="18.00" from="775393066#0" to="397093083"/>
    <trip id="19" depart="19.00" from="8915480" to="30029703#8"/>
    <trip id="20" depart="20.00" from="468000214#0" to="-224373746"/>
    <trip id="21" depart="21.00" from="-679312239#1" to="-8917359#1"/>
    <trip id="22" depart="22.00" from="-254984058#0" to="-682768772#2"/>
    <trip id="23" depart="23.00" from="-27019938#0" to="-8916814#4"/>
    <trip id="24" depart="24.00" from="397160348#1" to="-945294690#1"/>
    <trip id="25" depart="25.00" from="-938216875#1" to="-546325025#0"/>
    <trip id="26" depart="26.00" from="-8916021#0" to="8919929"/>
    <trip id="27" depart="27.00" from="400105599#0" to="396963212"/>
    <trip id="28" depart="28.00" from="-437533751#11" to="513703278#1"/>
    <trip id="29" depart="29.00" from="-417389558" to="1041364566"/>
    <trip id="30" depart="30.00" from="945101895" to="399156530#2"/>
    <trip id="31" depart="31.00" from="283529417#1" to="437541662#1"/>
    <trip id="32" depart="32.00" from="85562541#0" to="673993776#1"/>
    <trip id="33" depart="33.00" from="-680096044" to="-158804475#3"/>
    <trip id="34" depart="34.00" from="-8919143#3" to="-8916282#0"/>
    <trip id="35" depart="35.00" from="-544456548#1" to="8920276#0"/>
    <trip id="36" depart="36.00" from="8916642#0" to="-8919233#2"/>
    <trip id="37" depart="37.00" from="41371818#2" to="133376113#2"/>
    <trip id="38" depart="38.00" from="8918900#1" to="225840332"/>
    <trip id="39" depart="39.00" from="-8914965#1" to="-772926391"/>
    <trip id="40" depart="40.00" from="28596015#1" to="-8914998#2"/>
    <trip id="41" depart="41.00" from="306338109#1" to="8917621#0"/>
    <trip id="42" depart="42.00" from="123867457" to="-651190425#0"/>
    <trip id="43" depart="43.00" from="989334074#1" to="255178084#0"/>
    <trip id="44" depart="44.00" from="-255178152#3" to="-224384026#1"/>
    <trip id="45" depart="45.00" from="-27613593" to="397138663#1"/>
    <trip id="46" depart="46.00" from="680402685#1" to="158468718#1"/>
    <trip id="47" depart="47.00" from="-247966218#2" to="1050259220"/>
    <trip id="48" depart="48.00" from="985061709#0" to="26943527"/>
    <trip id="49" depart="49.00" from="8922564#0" to="8915961"/>
    <trip id="50" depart="50.00" from="-12437582#18" to="500871824#2"/>
    <trip id="51" depart="51.00" from="430738108" to="27054293#0"/>
    <trip id="52" depart="52.00" from="-8915974#6" to="399193687#1"/>
    <trip id="53" depart="53.00" from="-283523313#1" to="191010941#28"/>
    <trip id="54" depart="54.00" from="224373753#0" to="8920869#0"/>
    <trip id="55" depart="55.00" from="8916590#0" to="-8915831#1"/>
    <trip id="56" depart="56.00" from="254968940" to="-44671098#3"/>
    <trip id="57" depart="57.00" from="8918808#0" to="8916513#1"/>
    <trip id="58" depart="58.00" from="-8917657#7" to="399016166#2"/>
    <trip id="59" depart="59.00" from="396950820" to="-404629260"/>
    <trip id="60" depart="60.00" from="598020855#0" to="27166466#0"/>
    <trip id="61" depart="61.00" from="668807083#0" to="26988009#2"/>
    <trip id="62" depart="62.00" from="-1010488208#0" to="-8919760#0"/>
    <trip id="63" depart="63.00" from="-133856226#2" to="8919537#2"/>
    <trip id="64" depart="64.00" from="8916772" to="797226926#3"/>
    <trip id="65" depart="65.00" from="-8918647#0" to="-23878997#4"/>
    <trip id="66" depart="66.00" from="8916689#2" to="8920521#2"/>
    <trip id="67" depart="67.00" from="-255178063#3" to="254750820#11"/>
    <trip id="68" depart="68.00" from="-254750503#0" to="614449861"/>
    <trip id="69" depart="69.00" from="617990571#0" to="-30831533#5"/>
    <trip id="70" depart="70.00" from="24203847#0" to="283526875#3"/>
    <trip id="71" depart="71.00" from="-8914980#1" to="8916558#1"/>
    <trip id="72" depart="72.00" from="148902178#3" to="-588340585"/>
    <trip id="73" depart="73.00" from="27041554#0" to="513726808#0"/>
    <trip id="74" depart="74.00" from="-513925783" to="-8919160#1"/>
    <trip id="75" depart="75.00" from="978256480" to="408586842"/>
    <trip id="76" depart="76.00" from="183198861#1" to="255351717#0"/>
    <trip id="77" depart="77.00" from="-286672835#4" to="-679078803#3"/>
    <trip id="78" depart="78.00" from="-8920456#1" to="328683031"/>
    <trip id="79" depart="79.00" from="-680435797" to="-667396968"/>
    <trip id="80" depart="80.00" from="-254756522#14" to="397156903#0"/>
    <trip id="81" depart="81.00" from="-680084079" to="891809469#1"/>
    <trip id="82" depart="82.00" from="8914988#1" to="-254758112#1"/>
    <trip id="83" depart="83.00" from="-70051634" to="417396772"/>
    <trip id="84" depart="84.00" from="-590140988" to="-32949491#2"/>
    <trip id="85" depart="85.00" from="8919799#1" to="287721654#0"/>
    <trip id="86" depart="86.00" from="23884971" to="679078807#1"/>
    <trip id="87" depart="87.00" from="706534240#3" to="-48201560#1"/>
    <trip id="88" depart="88.00" from="-261517388" to="167952612"/>
    <trip id="89" depart="89.00" from="148902185" to="23879367#1"/>
    <trip id="90" depart="90.00" from="512038661" to="419643692"/>
    <trip id="91" depart="91.00" from="91190523" to="-26938702#0"/>
    <trip id="92" depart="92.00" from="133735879" to="-8920846#4"/>
    <trip id="93" depart="93.00" from="8915478" to="-792996590"/>
    <trip id="94" depart="94.00" from="-475457052#0" to="224373751#1"/>
    <trip id="95" depart="95.00" from="148315666#5" to="-8916840#4"/>
    <trip id="96" depart="96.00" from="-776881507" to="8919277"/>
    <trip id="97" depart="97.00" from="202485364" to="8916053#2"/>
    <trip id="98" depart="98.00" from="277480424" to="-225806035#0"/>
    <trip id="99" depart="99.00" from="996695179#8" to="84733302#17"/>
    <trip id="100" depart="100.00" from="8922158" to="8919428#1"/>
    <trip id="101" depart="101.00" from="86331208#0" to="-425624293"/>
    <trip id="102" depart="102.00" from="254299725#0" to="-60501632"/>
    <trip id="103" depart="103.00" from="133376113#2" to="-23969673#1"/>
    <trip id="104" depart="104.00" from="1019936705" to="919204680#0"/>
    <trip id="105" depart="105.00" from="-8914988#2" to="679075681#2"/>
    <trip id="106" depart="106.00" from="224384021" to="158468968#1"/>
    <trip id="107" depart="107.00" from="8921052" to="979877850"/>
    <trip id="108" depart="108.00" from="283527499#3" to="488801019"/>
    <trip id="109" depart="109.00" from="-406547245#5" to="-8917730"/>
    <trip id="111" depart="111.00" from="27092627#1" to="527857414#2"/>
    <trip id="112" depart="112.00" from="-237300267#0" to="311430149"/>
    <trip id="113" depart="113.00" from="254968973#1" to="88142690#4"/>
    <trip id="114" depart="114.00" from="-414401376#4" to="8921316#1"/>
    <trip id="115" depart="115.00" from="-254984064#0" to="-470217607#0"/>
    <trip id="116" depart="116.00" from="32949491#5" to="425516632#2"/>
    <trip id="117" depart="117.00" from="-682775802#1" to="-286672835#5"/>
    <trip id="118" depart="118.00" from="8917224#1" to="-771409386#6"/>
    <trip id="119" depart="119.00" from="32930020#3" to="397094802#1"/>
    <trip id="120" depart="120.00" from="147010716#10" to="310458109"/>
    <trip id="121" depart="121.00" from="255351725#6" to="8919813#0"/>
    <trip id="122" depart="122.00" from="-514580482#0" to="48447501"/>
    <trip id="123" depart="123.00" from="-706533480" to="133376114#5"/>
    <trip id="124" depart="124.00" from="417389569#1" to="-8918032#1"/>
    <trip id="125" depart="125.00" from="-8919163#10" to="546029201#2"/>
    <trip id="126" depart="126.00" from="-254759909#4" to="225840316#3"/>
    <trip id="127" depart="127.00" from="99278922#0" to="983872712#1"/>
    <trip id="128" depart="128.00" from="-254759917#0" to="-598020852"/>
    <trip id="129" depart="129.00" from="-8914988#2" to="8919742"/>
    <trip id="130" depart="130.00" from="8916845#2" to="8916866#7"/>
    <trip id="131" depart="131.00" from="-930588345#6" to="-417087275#1"/>
    <trip id="132" depart="132.00" from="792918824" to="469399626#1"/>
    <trip id="133" depart="133.00" from="396959347" to="930532759#0"/>
    <trip id="134" depart="134.00" from="408586842" to="-110800712#2"/>
    <trip id="135" depart="135.00" from="738000220#1" to="-8917984#0"/>
    <trip id="136" depart="136.00" from="417094961#0" to="8920054#8"/>
    <trip id="137" depart="137.00" from="-34128468#1" to="-286186803#3"/>
    <trip id="138" depart="138.00" from="-27167298#0" to="283529429#1"/>
    <trip id="139" depart="139.00" from="-8916381" to="396950821"/>
    <trip id="140" depart="140.00" from="48211196#2" to="-514650998#1"/>
    <trip id="141" depart="141.00" from="397147549#2" to="-8915974#4"/>
    <trip id="142" depart="142.00" from="254396720#1" to="8918078"/>
    <trip id="143" depart="143.00" from="85644937#3" to="-255351723#1"/>
    <trip id="144" depart="144.00" from="148902184" to="-8916744"/>
    <trip id="145" depart="145.00" from="-103644219#2" to="620728109"/>
    <trip id="146" depart="146.00" from="397258285#1" to="-891335056#1"/>
    <trip id="147" depart="147.00" from="514630075#0" to="283529404#0"/>
    <trip id="148" depart="148.00" from="158468953" to="-11315800#2"/>
    <trip id="149" depart="149.00" from="-254759971#7" to="8917043#8"/>
    <trip id="150" depart="150.00" from="8917781" to="27652477#0"/>
    <trip id="151" depart="151.00" from="797226924#8" to="30831533#3"/>
    <trip id="152" depart="152.00" from="-398123033#1" to="-30642909#2"/>
    <trip id="153" depart="153.00" from="-8918751#1" to="8917663#0"/>
    <trip id="154" depart="154.00" from="681500369" to="8915959#0"/>
    <trip id="155" depart="155.00" from="8917594#0" to="-562137994"/>
    <trip id="156" depart="156.00" from="-776642663" to="-27041245#0"/>
    <trip id="157" depart="157.00" from="674757880#2" to="8917085#2"/>
    <trip id="158" depart="158.00" from="133748357#0" to="397103494"/>
    <trip id="159" depart="159.00" from="-404848902" to="8919613#1"/>
    <trip id="160" depart="160.00" from="8916155#7" to="89802414#16"/>
    <trip id="161" depart="161.00" from="713727638#1" to="8916973#0"/>
    <trip id="162" depart="162.00" from="-146155126" to="514600199#0"/>
    <trip id="163" depart="163.00" from="-8920021#1" to="8919633"/>
    <trip id="164" depart="164.00" from="683210168#3" to="8916244"/>
    <trip id="165" depart="165.00" from="713727638#0" to="-8916253#1"/>
    <trip id="166" depart="166.00" from="679075681#4" to="-27570786#4"/>
    <trip id="167" depart="167.00" from="8916469#0" to="8915427"/>
    <trip id="168" depart="168.00" from="-663877884#2" to="746808402#2"/>
    <trip id="169" depart="169.00" from="225806038#2" to="-8918808#0"/>
    <trip id="170" depart="170.00" from="681494252" to="-680402685#1"/>
    <trip id="171" depart="171.00" from="-143617589#1" to="-488659710"/>
    <trip id="172" depart="172.00" from="-8919745#1" to="8916253#1"/>
    <trip id="173" depart="173.00" from="8921795#3" to="-8916862#0"/>
    <trip id="174" depart="174.00" from="398681181#1" to="133743897#5"/>
    <trip id="175" depart="175.00" from="898469737#1" to="27050839#2"/>
    <trip id="176" depart="176.00" from="8920045#2" to="-286186803#12"/>
    <trip id="177" depart="177.00" from="8922357#0" to="-44671098#0"/>
    <trip id="178" depart="178.00" from="8921372#3" to="-8916201"/>
    <trip id="179" depart="179.00" from="-27398132#2" to="191010941#21"/>
    <trip id="180" depart="180.00" from="507998751#1" to="-8919207#12"/>
    <trip id="181" depart="181.00" from="396937570#0" to="255178111#3"/>
    <trip id="182" depart="182.00" from="104203938#3" to="295482373#4"/>
    <trip id="183" depart="183.00" from="-84805689#0" to="475456982"/>
    <trip id="184" depart="184.00" from="-1020203853" to="8919398#5"/>
    <trip id="185" depart="185.00" from="27029265#5" to="48980820#6"/>
    <trip id="186" depart="186.00" from="514656303#8" to="417699605#0"/>
    <trip id="187" depart="187.00" from="-89802414#8" to="-254750822#3"/>
    <trip id="188" depart="188.00" from="417097119#4" to="-8920210#1"/>
    <trip id="189" depart="189.00" from="-8919067" to="86331264#0"/>
    <trip id="190" depart="190.00" from="48442613" to="-8918078"/>
    <trip id="191" depart="191.00" from="-8918836#0" to="133856288#0"/>
    <trip id="192" depart="192.00" from="133734413#0" to="-8917693"/>
    <trip id="193" depart="193.00" from="-30030283#1" to="155373677#1"/>
    <trip id="194" depart="194.00" from="8920084" to="427285416#0"/>
    <trip id="195" depart="195.00" from="8917730" to="396987356#1"/>
    <trip id="196" depart="196.00" from="-8917776#0" to="283512618#2"/>
    <trip id="197" depart="197.00" from="-1006830794" to="-8917246#3"/>
    <trip id="198" depart="198.00" from="158804458#1" to="306338107#0"/>
    <trip id="199" depart="199.00" from="408610949" to="23848314#1"/>
    <trip id="200" depart="200.00" from="196949613" to="-602362592#1"/>
    <trip id="201" depart="201.00" from="23924511#1" to="8917742#0"/>
    <trip id="202" depart="202.00" from="681499273#1" to="-437533751#10"/>
    <trip id="203" depart="203.00" from="-255178042#1" to="255178175#3"/>
    <trip id="204" depart="204.00" from="397145254#1" to="-8920563#3"/>
    <trip id="205" depart="205.00" from="739469037#1" to="544456548#6"/>
    <trip id="206" depart="206.00" from="417393350" to="-679078803#1"/>
    <trip id="207" depart="207.00" from="-50845745" to="-146155465#0"/>
    <trip id="208" depart="208.00" from="-742390005#1" to="24604614#2"/>
    <trip id="209" depart="209.00" from="86331228#0" to="-254759919#2"/>
    <trip id="210" depart="210.00" from="133856356" to="397146715#2"/>
    <trip id="211" depart="211.00" from="-485618965#0" to="45567372#3"/>
    <trip id="212" depart="212.00" from="254758127#4" to="-762949346"/>
    <trip id="213" depart="213.00" from="414033712#2" to="-107288562#0"/>
    <trip id="214" depart="214.00" from="527857393#1" to="620728085"/>
    <trip id="215" depart="215.00" from="-27146311#0" to="158804475#0"/>
    <trip id="216" depart="216.00" from="-437557059" to="8921121#1"/>
    <trip id="217" depart="217.00" from="255178146#0" to="-225516728#2"/>
    <trip id="218" depart="218.00" from="-772927006#1" to="86331269#4"/>
    <trip id="219" depart="219.00" from="224941795#0" to="69312746#2"/>
    <trip id="220" depart="220.00" from="417233181" to="932297474"/>
    <trip id="221" depart="221.00" from="331111652#1" to="8920701#1"/>
    <trip id="222" depart="222.00" from="8917265#5" to="396980731#0"/>
    <trip id="223" depart="223.00" from="48435258#6" to="255170257#2"/>
    <trip id="224" depart="224.00" from="777343790" to="28329732"/>
    <trip id="225" depart="225.00" from="8917515" to="519998121#2"/>
    <trip id="226" depart="226.00" from="24007132#0" to="-87297165#1"/>
    <trip id="227" depart="227.00" from="-763409443" to="398681182#15"/>
    <trip id="228" depart="228.00" from="617990568#1" to="256803972#1"/>
    <trip id="229" depart="229.00" from="397115548" to="-8916582#3"/>
    <trip id="230" depart="230.00" from="-254968962#3" to="-8917184#5"/>
    <trip id="231" depart="231.00" from="-8916344" to="-8919527#0"/>
    <trip id="232" depart="232.00" from="27044037#2" to="-396962010"/>
    <trip id="233" depart="233.00" from="-681178971" to="44670366#1"/>
    <trip id="234" depart="234.00" from="468556883" to="-254297751"/>
    <trip id="235" depart="235.00" from="133748425#2" to="27400588"/>
    <trip id="236" depart="236.00" from="137812987" to="-519227089"/>
    <trip id="237" depart="237.00" from="147496073#1" to="8918026"/>
    <trip id="238" depart="238.00" from="306338104#1" to="449208906"/>
    <trip id="239" depart="239.00" from="885500679#1" to="619535761"/>
    <trip id="240" depart="240.00" from="1030276071" to="-108194449#15"/>
    <trip id="241" depart="241.00" from="-8921349#3" to="56036584"/>
    <trip id="242" depart="242.00" from="87297165#2" to="8920858"/>
    <trip id="243" depart="243.00" from="146155465#1" to="527857397#1"/>
    <trip id="244" depart="244.00" from="27397539#0" to="396945996"/>
    <trip id="245" depart="245.00" from="-620728103#8" to="-655718937#1"/>
    <trip id="246" depart="246.00" from="166304349#3" to="-155373675#3"/>
    <trip id="247" depart="247.00" from="-8920254#0" to="43101607#0"/>
    <trip id="248" depart="248.00" from="133743882" to="-419643715#0"/>
    <trip id="249" depart="249.00" from="228371251" to="-306788551#0"/>
    <trip id="250" depart="250.00" from="397086246" to="-148846999#0"/>
    <trip id="251" depart="251.00" from="110330885#2" to="286431248"/>
    <trip id="252" depart="252.00" from="-148315666#3" to="399908610"/>
    <trip id="253" depart="253.00" from="-359903538" to="225854653#0"/>
    <trip id="254" depart="254.00" from="-225516718#2" to="1041357578#0"/>
    <trip id="255" depart="255.00" from="-552076778" to="-8919994"/>
    <trip id="256" depart="256.00" from="591577498#2" to="1041357578#1"/>
    <trip id="257" depart="257.00" from="529968580#1" to="797255352#8"/>
    <trip id="258" depart="258.00" from="-808808634" to="-255170253#0"/>
    <trip id="259" depart="259.00" from="-133856225#2" to="27166466#1"/>
    <trip id="260" depart="260.00" from="997431148" to="-8921727#1"/>
    <trip id="261" depart="261.00" from="404629259" to="677696224"/>
    <trip id="262" depart="262.00" from="406555075" to="564961710"/>
    <trip id="263" depart="263.00" from="8920614" to="-513932284"/>
    <trip id="264" depart="264.00" from="-133856268#0" to="-402070966"/>
    <trip id="265" depart="265.00" from="-295482373#8" to="417400699"/>
    <trip id="266" depart="266.00" from="286186803#6" to="-620728098"/>
    <trip id="267" depart="267.00" from="449203885#3" to="619568428#2"/>
    <trip id="268" depart="268.00" from="-425624293" to="396958806#2"/>
    <trip id="269" depart="269.00" from="524343387#0" to="-286158537#0"/>
    <trip id="270" depart="270.00" from="742262460" to="8921644#2"/>
    <trip id="271" depart="271.00" from="-27397692#1" to="-147496076#6"/>
    <trip id="272" depart="272.00" from="-8918953#5" to="427285416#1"/>
    <trip id="273" depart="273.00" from="8921112#0" to="133733586#1"/>
    <trip id="274" depart="274.00" from="478789267" to="-254968949"/>
    <trip id="275" depart="275.00" from="437556516#11" to="397137031#0"/>
    <trip id="276" depart="276.00" from="-27028572#0" to="641736900"/>
    <trip id="277" depart="277.00" from="86331251#1" to="392774920"/>
    <trip id="278" depart="278.00" from="-286672835#6" to="91187856#3"/>
    <trip id="279" depart="279.00" from="676296619#0" to="-8921372#2"/>
    <trip id="280" depart="280.00" from="158468970#0" to="-996695179#10"/>
    <trip id="281" depart="281.00" from="254984061" to="-8920956#2"/>
    <trip id="282" depart="282.00" from="86331223#0" to="767944816"/>
    <trip id="283" depart="283.00" from="-27092233#1" to="8921316#1"/>
    <trip id="284" depart="284.00" from="397159529" to="778988071"/>
    <trip id="285" depart="285.00" from="469389238#2" to="191297197#3"/>
    <trip id="286" depart="286.00" from="513729745#1" to="8921709#0"/>
    <trip id="287" depart="287.00" from="-8916280#12" to="713758735#2"/>
    <trip id="288" depart="288.00" from="27029246#1" to="254396717#1"/>
    <trip id="289" depart="289.00" from="163669675" to="513937855"/>
    <trip id="290" depart="290.00" from="-8916204" to="87554961#0"/>
    <trip id="291" depart="291.00" from="777349728" to="-255178098#0"/>
    <trip id="292" depart="292.00" from="8916882" to="-762202750#0"/>
    <trip id="293" depart="293.00" from="225847511#1" to="396968571#1"/>
    <trip id="294" depart="294.00" from="1020203844" to="-153250480"/>
    <trip id="295" depart="295.00" from="86331259#9" to="-465209329#15"/>
    <trip id="296" depart="296.00" from="-563092565#3" to="682775802#1"/>
    <trip id="297" depart="297.00" from="-8920569" to="8916922#0"/>
    <trip id="298" depart="298.00" from="461084153#5" to="-8916689#0"/>
    <trip id="300" depart="300.00" from="-255178063#2" to="498271552"/>
    <trip id="301" depart="301.00" from="254396723" to="595194543"/>
    <trip id="302" depart="302.00" from="437556516#11" to="404331849"/>
    <trip id="303" depart="303.00" from="254750820#11" to="681500371#0"/>
    <trip id="304" depart="304.00" from="-255351713#3" to="-674189179#1"/>
    <trip id="305" depart="305.00" from="437558272#1" to="-8918884#1"/>
    <trip id="306" depart="306.00" from="30029703#2" to="24335485#1"/>
    <trip id="307" depart="307.00" from="26779355" to="159024971#3"/>
    <trip id="308" depart="308.00" from="516569605#6" to="-8920222#1"/>
    <trip id="309" depart="309.00" from="465403860" to="-8916452#1"/>
    <trip id="310" depart="310.00" from="-797226924#4" to="-28690007#1"/>
    <trip id="311" depart="311.00" from="-48211196#2" to="-286668073#2"/>
    <trip id="312" depart="312.00" from="27028340#5" to="617825975"/>
    <trip id="313" depart="313.00" from="-468000212" to="-619568430#1"/>
    <trip id="314" depart="314.00" from="254299113#4" to="50690291"/>
    <trip id="315" depart="315.00" from="89802415#0" to="262937969#6"/>
    <trip id="316" depart="316.00" from="-8916887" to="-27028350"/>
    <trip id="317" depart="317.00" from="-48446172" to="-680383405#1"/>
    <trip id="318" depart="318.00" from="-446598002#1" to="-133743859#1"/>
    <trip id="319" depart="319.00" from="26965858" to="-8916578#4"/>
    <trip id="320" depart="320.00" from="8922972" to="283529756#2"/>
    <trip id="321" depart="321.00" from="446233235" to="-30030485#3"/>
    <trip id="322" depart="322.00" from="8916286#5" to="254759912#0"/>
    <trip id="323" depart="323.00" from="8916496#2" to="29059494#1"/>
    <trip id="324" depart="324.00" from="237300276#0" to="215848120"/>
    <trip id="325" depart="325.00" from="-46791690#1" to="-225806050#5"/>
    <trip id="326" depart="326.00" from="8920124#1" to="25398445#7"/>
    <trip id="327" depart="327.00" from="761340401#7" to="133748351#5"/>
    <trip id="328" depart="328.00" from="-254759931#6" to="397146708#1"/>
    <trip id="329" depart="329.00" from="-225840348#0" to="-399142440#7"/>
    <trip id="330" depart="330.00" from="286180034#0" to="-8918647#6"/>
    <trip id="331" depart="331.00" from="970790448#8" to="-286438009#0"/>
    <trip id="332" depart="332.00" from="61601086" to="396955704#1"/>
    <trip id="333" depart="333.00" from="680080049" to="-679312243#0"/>
    <trip id="334" depart="334.00" from="255351724" to="224384037#0"/>
    <trip id="335" depart="335.00" from="198651498" to="8915869#0"/>
    <trip id="336" depart="336.00" from="945294695#0" to="-8918836#4"/>
    <trip id="337" depart="337.00" from="397077537" to="396966240#1"/>
    <trip id="338" depart="338.00" from="514598269" to="8920547#0"/>
    <trip id="339" depart="339.00" from="-516569605#5" to="-573421353#1"/>
    <trip id="340" depart="340.00" from="416878315#0" to="-415254521#0"/>
    <trip id="341" depart="341.00" from="-437538522#14" to="-254759978#1"/>
    <trip id="342" depart="342.00" from="-1034015984#2" to="224384037#0"/>
    <trip id="343" depart="343.00" from="32929982#17" to="-8917459#0"/>
    <trip id="344" depart="344.00" from="-681273461" to="47184411#1"/>
    <trip id="345" depart="345.00" from="46594528" to="225518498#0"/>
    <trip id="346" depart="346.00" from="437537690#0" to="8919328#0"/>
    <trip id="347" depart="347.00" from="679078807#0" to="397126889"/>
    <trip id="348" depart="348.00" from="417087322#0" to="8919749#0"/>
    <trip id="349" depart="349.00" from="154648296#6" to="27614369#1"/>
    <trip id="350" depart="350.00" from="400104483#14" to="8918563"/>
    <trip id="351" depart="351.00" from="770035247" to="-254758137#3"/>
    <trip id="352" depart="352.00" from="-419633760#0" to="-8918943#1"/>
    <trip id="353" depart="353.00" from="52721875#0" to="28694466"/>
    <trip id="354" depart="354.00" from="-8917166#8" to="-29482571#1"/>
    <trip id="355" depart="355.00" from="437541661#1" to="46791690#5"/>
    <trip id="356" depart="356.00" from="8920212#1" to="254982305#0"/>
    <trip id="357" depart="357.00" from="254758119#0" to="-255166636#1"/>
    <trip id="358" depart="358.00" from="-214545530#1" to="175507524#2"/>
    <trip id="359" depart="359.00" from="-8919450#2" to="-814613159#1"/>
    <trip id="360" depart="360.00" from="-255178162#0" to="8921358"/>
    <trip id="361" depart="361.00" from="809585951" to="29482558#0"/>
    <trip id="362" depart="362.00" from="8920704#6" to="996695183"/>
    <trip id="363" depart="363.00" from="417391868#1" to="-8916386#1"/>
    <trip id="364" depart="364.00" from="-215848109#1" to="588078605"/>
    <trip id="365" depart="365.00" from="23873638#8" to="413791397#0"/>
    <trip id="366" depart="366.00" from="8918953#5" to="-464926781#0"/>
    <trip id="367" depart="367.00" from="306788551#3" to="397574247"/>
    <trip id="368" depart="368.00" from="254750822#5" to="-255330036#1"/>
    <trip id="369" depart="369.00" from="-8921059#2" to="-8920491#0"/>
    <trip id="370" depart="370.00" from="417385773#1" to="8915168"/>
    <trip id="371" depart="371.00" from="-8919847" to="446598002#1"/>
    <trip id="372" depart="372.00" from="-8917166#0" to="8920439#1"/>
    <trip id="373" depart="373.00" from="718498464#1" to="283527452#1"/>
    <trip id="374" depart="374.00" from="224384018#0" to="-8919214#3"/>
    <trip id="375" depart="375.00" from="-8919495#0" to="8922357#2"/>
    <trip id="376" depart="376.00" from="133743877#0" to="255178162#4"/>
    <trip id="377" depart="377.00" from="933272216" to="417087426"/>
    <trip id="378" depart="378.00" from="27093514" to="145474275#1"/>
    <trip id="379" depart="379.00" from="-47108401#0" to="-91187856#3"/>
    <trip id="380" depart="380.00" from="55353517#1" to="397127924"/>
    <trip id="381" depart="381.00" from="588340581#0" to="-514650997#1"/>
    <trip id="382" depart="382.00" from="27615252" to="8919487"/>
    <trip id="383" depart="383.00" from="183198861#1" to="465209329#13"/>
    <trip id="384" depart="384.00" from="-286674807#3" to="8922858#1"/>
    <trip id="385" depart="385.00" from="396950814" to="-717376552"/>
    <trip id="386" depart="386.00" from="-415222967#1" to="283527469"/>
    <trip id="387" depart="387.00" from="28327004#0" to="-255351733#2"/>
    <trip id="388" depart="388.00" from="968937451#1" to="8918895#2"/>
    <trip id="389" depart="389.00" from="225806050#8" to="-286299595#6"/>
    <trip id="390" depart="390.00" from="779105816#1" to="254971057"/>
    <trip id="391" depart="391.00" from="48201560#3" to="255178073#6"/>
    <trip id="392" depart="392.00" from="-8916433#0" to="843434423"/>
    <trip id="393" depart="393.00" from="89812517#0" to="-761340401#7"/>
    <trip id="395" depart="395.00" from="8919173#8" to="255178063#7"/>
    <trip id="396" depart="396.00" from="8916798#1" to="8916243#0"/>
    <trip id="397" depart="397.00" from="-8916543#5" to="680914232"/>
    <trip id="398" depart="398.00" from="135116277" to="8919782#0"/>
    <trip id="399" depart="399.00" from="255168048#2" to="763399932"/>
    <trip id="400" depart="400.00" from="-8916883#0" to="-8917899"/>
    <trip id="401" depart="401.00" from="30831533#2" to="996680759#0"/>
    <trip id="402" depart="402.00" from="254466687#1" to="-399138117#1"/>
    <trip id="403" depart="403.00" from="27031219" to="-8921273#4"/>
    <trip id="404" depart="404.00" from="28231602#0" to="27512075#2"/>
    <trip id="405" depart="405.00" from="224384031#0" to="-8919658#1"/>
    <trip id="406" depart="406.00" from="-47184145" to="46272291#2"/>
    <trip id="407" depart="407.00" from="286672835#4" to="-683203815"/>
    <trip id="408" depart="408.00" from="628897455" to="-224199010#3"/>
    <trip id="409" depart="409.00" from="515521786" to="47170567#0"/>
    <trip id="410" depart="410.00" from="713758733#1" to="1071617892#0"/>
    <trip id="411" depart="411.00" from="417095371#1" to="765333677"/>