<?xml version="1.0" encoding="UTF-8"?>

<!-- generated on 02/05/2021 11:18:51 by Eclipse SUMO netedit Version 1.9.0
<configuration xmlns:xsi="http://www.w3.org/2001/XMLSchema-instance" xsi:noNamespaceSchemaLocation="http://sumo.dlr.de/xsd/netconvertConfiguration.xsd">

    <output>
        <output-file value="C:\Users\david\Sumo\taxi_simulation_trial\manhattan.net.xml"/>
    </output>

    <processing>
        <offset.disable-normalization value="true"/>
    </processing>

    <junctions>
        <no-turnarounds value="true"/>
    </junctions>

    <report>
        <aggregate-warnings value="5"/>
    </report>

</configuration>
-->

<net version="1.9" junctionCornerDetail="5" limitTurnSpeed="5.50" xmlns:xsi="http://www.w3.org/2001/XMLSchema-instance" xsi:noNamespaceSchemaLocation="http://sumo.dlr.de/xsd/net_file.xsd">

    <location netOffset="0.00,0.00" convBoundary="-200.00,-400.00,2100.00,1500.00" origBoundary="10000000000.00,10000000000.00,-10000000000.00,-10000000000.00" projParameter="!"/>

    <edge id=":gneJ0_0" function="internal">
        <lane id=":gneJ0_0_0" index="0" speed="6.08" length="7.74" shape="-201.60,-396.80 -201.30,-398.90 -200.40,-400.40 -198.90,-401.30 -196.80,-401.60"/>
    </edge>
    <edge id=":gneJ0_1" function="internal">
        <lane id=":gneJ0_1_0" index="0" speed="3.90" length="2.58" shape="-196.80,-398.40 -197.50,-398.30 -198.00,-398.00 -198.30,-397.50 -198.40,-396.80"/>
    </edge>
    <edge id=":gneJ1_0" function="internal">
        <lane id=":gneJ1_0_0" index="0" speed="6.51" length="9.03" shape="-101.60,-392.80 -101.95,-395.25 -103.00,-397.00 -104.75,-398.05 -107.20,-398.40"/>
    </edge>
    <edge id=":gneJ1_1" function="internal">
        <lane id=":gneJ1_1_0" index="0" speed="8.00" length="14.19" shape="-101.60,-392.80 -101.05,-396.65 -99.40,-399.40 -96.65,-401.05 -92.80,-401.60"/>
    </edge>
    <edge id=":gneJ1_2" function="internal">
        <lane id=":gneJ1_2_0" index="0" speed="6.51" length="9.03" shape="-92.80,-398.40 -95.25,-398.05 -97.00,-397.00 -98.05,-395.25 -98.40,-392.80"/>
    </edge>
    <edge id=":gneJ1_3" function="internal">
        <lane id=":gneJ1_3_0" index="0" speed="13.89" length="14.40" shape="-92.80,-398.40 -107.20,-398.40"/>
    </edge>
    <edge id=":gneJ1_4" function="internal">
        <lane id=":gneJ1_4_0" index="0" speed="13.89" length="14.40" shape="-107.20,-401.60 -92.80,-401.60"/>
    </edge>
    <edge id=":gneJ1_5" function="internal">
        <lane id=":gneJ1_5_0" index="0" speed="8.00" length="5.93" shape="-107.20,-401.60 -103.35,-401.05 -101.60,-400.00"/>
    </edge>
    <edge id=":gneJ1_6" function="internal">
        <lane id=":gneJ1_6_0" index="0" speed="8.00" length="8.26" shape="-101.60,-400.00 -100.60,-399.40 -98.95,-396.65 -98.40,-392.80"/>
    </edge>
    <edge id=":gneJ10_0" function="internal">
        <lane id=":gneJ10_0_0" index="0" speed="3.90" length="2.58" shape="798.40,-396.80 798.30,-397.50 798.00,-398.00 797.50,-398.30 796.80,-398.40"/>
    </edge>
    <edge id=":gneJ10_1" function="internal">
        <lane id=":gneJ10_1_0" index="0" speed="6.08" length="7.74" shape="796.80,-401.60 798.90,-401.30 800.40,-400.40 801.30,-398.90 801.60,-396.80"/>
    </edge>
    <edge id=":gneJ100_0" function="internal">
        <lane id=":gneJ100_0_0" index="0" speed="6.51" length="9.03" shape="498.40,-92.80 498.05,-95.25 497.00,-97.00 495.25,-98.05 492.80,-98.40"/>
    </edge>
    <edge id=":gneJ100_1" function="internal">
        <lane id=":gneJ100_1_0" index="0" speed="13.89" length="14.40" shape="498.40,-92.80 498.40,-107.20"/>
    </edge>
    <edge id=":gneJ100_2" function="internal">
        <lane id=":gneJ100_2_0" index="0" speed="8.00" length="5.93" shape="498.40,-92.80 498.95,-96.65 500.00,-98.40"/>
    </edge>
    <edge id=":gneJ100_12" function="internal">
        <lane id=":gneJ100_12_0" index="0" speed="8.00" length="8.26" shape="500.00,-98.40 500.60,-99.40 503.35,-101.05 507.20,-101.60"/>
    </edge>
    <edge id=":gneJ100_3" function="internal">
        <lane id=":gneJ100_3_0" index="0" speed="6.51" length="9.03" shape="507.20,-98.40 504.75,-98.05 503.00,-97.00 501.95,-95.25 501.60,-92.80"/>
    </edge>
    <edge id=":gneJ100_4" function="internal">
        <lane id=":gneJ100_4_0" index="0" speed="13.89" length="14.40" shape="507.20,-98.40 492.80,-98.40"/>
    </edge>
    <edge id=":gneJ100_5" function="internal">
        <lane id=":gneJ100_5_0" index="0" speed="8.00" length="14.19" shape="507.20,-98.40 503.35,-98.95 500.60,-100.60 498.95,-103.35 498.40,-107.20"/>
    </edge>
    <edge id=":gneJ100_6" function="internal">
        <lane id=":gneJ100_6_0" index="0" speed="6.51" length="9.03" shape="501.60,-107.20 501.95,-104.75 503.00,-103.00 504.75,-101.95 507.20,-101.60"/>
    </edge>
    <edge id=":gneJ100_7" function="internal">
        <lane id=":gneJ100_7_0" index="0" speed="13.89" length="14.40" shape="501.60,-107.20 501.60,-92.80"/>
    </edge>
    <edge id=":gneJ100_8" function="internal">
        <lane id=":gneJ100_8_0" index="0" speed="8.00" length="5.93" shape="501.60,-107.20 501.05,-103.35 500.00,-101.60"/>
    </edge>
    <edge id=":gneJ100_13" function="internal">
        <lane id=":gneJ100_13_0" index="0" speed="8.00" length="8.26" shape="500.00,-101.60 499.40,-100.60 496.65,-98.95 492.80,-98.40"/>
    </edge>
    <edge id=":gneJ100_9" function="internal">
        <lane id=":gneJ100_9_0" index="0" speed="6.51" length="9.03" shape="492.80,-101.60 495.25,-101.95 497.00,-103.00 498.05,-104.75 498.40,-107.20"/>
    </edge>
    <edge id=":gneJ100_10" function="internal">
        <lane id=":gneJ100_10_0" index="0" speed="13.89" length="14.40" shape="492.80,-101.60 507.20,-101.60"/>
    </edge>
    <edge id=":gneJ100_11" function="internal">
        <lane id=":gneJ100_11_0" index="0" speed="8.00" length="14.19" shape="492.80,-101.60 496.65,-101.05 499.40,-99.40 501.05,-96.65 501.60,-92.80"/>
    </edge>
    <edge id=":gneJ101_0" function="internal">
        <lane id=":gneJ101_0_0" index="0" speed="6.51" length="9.03" shape="498.40,-192.80 498.05,-195.25 497.00,-197.00 495.25,-198.05 492.80,-198.40"/>
    </edge>
    <edge id=":gneJ101_1" function="internal">
        <lane id=":gneJ101_1_0" index="0" speed="13.89" length="14.40" shape="498.40,-192.80 498.40,-207.20"/>
    </edge>
    <edge id=":gneJ101_2" function="internal">
        <lane id=":gneJ101_2_0" index="0" speed="8.00" length="5.93" shape="498.40,-192.80 498.95,-196.65 500.00,-198.40"/>
    </edge>
    <edge id=":gneJ101_12" function="internal">
        <lane id=":gneJ101_12_0" index="0" speed="8.00" length="8.26" shape="500.00,-198.40 500.60,-199.40 503.35,-201.05 507.20,-201.60"/>
    </edge>
    <edge id=":gneJ101_3" function="internal">
        <lane id=":gneJ101_3_0" index="0" speed="6.51" length="9.03" shape="507.20,-198.40 504.75,-198.05 503.00,-197.00 501.95,-195.25 501.60,-192.80"/>
    </edge>
    <edge id=":gneJ101_4" function="internal">
        <lane id=":gneJ101_4_0" index="0" speed="13.89" length="14.40" shape="507.20,-198.40 492.80,-198.40"/>
    </edge>
    <edge id=":gneJ101_5" function="internal">
        <lane id=":gneJ101_5_0" index="0" speed="8.00" length="14.19" shape="507.20,-198.40 503.35,-198.95 500.60,-200.60 498.95,-203.35 498.40,-207.20"/>
    </edge>
    <edge id=":gneJ101_6" function="internal">
        <lane id=":gneJ101_6_0" index="0" speed="6.51" length="9.03" shape="501.60,-207.20 501.95,-204.75 503.00,-203.00 504.75,-201.95 507.20,-201.60"/>
    </edge>
    <edge id=":gneJ101_7" function="internal">
        <lane id=":gneJ101_7_0" index="0" speed="13.89" length="14.40" shape="501.60,-207.20 501.60,-192.80"/>
    </edge>
    <edge id=":gneJ101_8" function="internal">
        <lane id=":gneJ101_8_0" index="0" speed="8.00" length="5.93" shape="501.60,-207.20 501.05,-203.35 500.00,-201.60"/>
    </edge>
    <edge id=":gneJ101_13" function="internal">
        <lane id=":gneJ101_13_0" index="0" speed="8.00" length="8.26" shape="500.00,-201.60 499.40,-200.60 496.65,-198.95 492.80,-198.40"/>
    </edge>
    <edge id=":gneJ101_9" function="internal">
        <lane id=":gneJ101_9_0" index="0" speed="6.51" length="9.03" shape="492.80,-201.60 495.25,-201.95 497.00,-203.00 498.05,-204.75 498.40,-207.20"/>
    </edge>
    <edge id=":gneJ101_10" function="internal">
        <lane id=":gneJ101_10_0" index="0" speed="13.89" length="14.40" shape="492.80,-201.60 507.20,-201.60"/>
    </edge>
    <edge id=":gneJ101_11" function="internal">
        <lane id=":gneJ101_11_0" index="0" speed="8.00" length="14.19" shape="492.80,-201.60 496.65,-201.05 499.40,-199.40 501.05,-196.65 501.60,-192.80"/>
    </edge>
    <edge id=":gneJ102_0" function="internal">
        <lane id=":gneJ102_0_0" index="0" speed="6.51" length="9.03" shape="498.40,-292.80 498.05,-295.25 497.00,-297.00 495.25,-298.05 492.80,-298.40"/>
    </edge>
    <edge id=":gneJ102_1" function="internal">
        <lane id=":gneJ102_1_0" index="0" speed="13.89" length="14.40" shape="498.40,-292.80 498.40,-307.20"/>
    </edge>
    <edge id=":gneJ102_2" function="internal">
        <lane id=":gneJ102_2_0" index="0" speed="8.00" length="5.93" shape="498.40,-292.80 498.95,-296.65 500.00,-298.40"/>
    </edge>
    <edge id=":gneJ102_12" function="internal">
        <lane id=":gneJ102_12_0" index="0" speed="8.00" length="8.26" shape="500.00,-298.40 500.60,-299.40 503.35,-301.05 507.20,-301.60"/>
    </edge>
    <edge id=":gneJ102_3" function="internal">
        <lane id=":gneJ102_3_0" index="0" speed="6.51" length="9.03" shape="507.20,-298.40 504.75,-298.05 503.00,-297.00 501.95,-295.25 501.60,-292.80"/>
    </edge>
    <edge id=":gneJ102_4" function="internal">
        <lane id=":gneJ102_4_0" index="0" speed="13.89" length="14.40" shape="507.20,-298.40 492.80,-298.40"/>
    </edge>
    <edge id=":gneJ102_5" function="internal">
        <lane id=":gneJ102_5_0" index="0" speed="8.00" length="14.19" shape="507.20,-298.40 503.35,-298.95 500.60,-300.60 498.95,-303.35 498.40,-307.20"/>
    </edge>
    <edge id=":gneJ102_6" function="internal">
        <lane id=":gneJ102_6_0" index="0" speed="6.51" length="9.03" shape="501.60,-307.20 501.95,-304.75 503.00,-303.00 504.75,-301.95 507.20,-301.60"/>
    </edge>
    <edge id=":gneJ102_7" function="internal">
        <lane id=":gneJ102_7_0" index="0" speed="13.89" length="14.40" shape="501.60,-307.20 501.60,-292.80"/>
    </edge>
    <edge id=":gneJ102_8" function="internal">
        <lane id=":gneJ102_8_0" index="0" speed="8.00" length="5.93" shape="501.60,-307.20 501.05,-303.35 500.00,-301.60"/>
    </edge>
    <edge id=":gneJ102_13" function="internal">
        <lane id=":gneJ102_13_0" index="0" speed="8.00" length="8.26" shape="500.00,-301.60 499.40,-300.60 496.65,-298.95 492.80,-298.40"/>
    </edge>
    <edge id=":gneJ102_9" function="internal">
        <lane id=":gneJ102_9_0" index="0" speed="6.51" length="9.03" shape="492.80,-301.60 495.25,-301.95 497.00,-303.00 498.05,-304.75 498.40,-307.20"/>
    </edge>
    <edge id=":gneJ102_10" function="internal">
        <lane id=":gneJ102_10_0" index="0" speed="13.89" length="14.40" shape="492.80,-301.60 507.20,-301.60"/>
    </edge>
    <edge id=":gneJ102_11" function="internal">
        <lane id=":gneJ102_11_0" index="0" speed="8.00" length="14.19" shape="492.80,-301.60 496.65,-301.05 499.40,-299.40 501.05,-296.65 501.60,-292.80"/>
    </edge>
    <edge id=":gneJ103_0" function="internal">
        <lane id=":gneJ103_0_0" index="0" speed="6.51" length="9.03" shape="598.40,507.20 598.05,504.75 597.00,503.00 595.25,501.95 592.80,501.60"/>
    </edge>
    <edge id=":gneJ103_1" function="internal">
        <lane id=":gneJ103_1_0" index="0" speed="13.89" length="14.40" shape="598.40,507.20 598.40,492.80"/>
    </edge>
    <edge id=":gneJ103_2" function="internal">
        <lane id=":gneJ103_2_0" index="0" speed="8.00" length="5.93" shape="598.40,507.20 598.95,503.35 600.00,501.60"/>
    </edge>
    <edge id=":gneJ103_12" function="internal">
        <lane id=":gneJ103_12_0" index="0" speed="8.00" length="8.26" shape="600.00,501.60 600.60,500.60 603.35,498.95 607.20,498.40"/>
    </edge>
    <edge id=":gneJ103_3" function="internal">
        <lane id=":gneJ103_3_0" index="0" speed="6.51" length="9.03" shape="607.20,501.60 604.75,501.95 603.00,503.00 601.95,504.75 601.60,507.20"/>
    </edge>
    <edge id=":gneJ103_4" function="internal">
        <lane id=":gneJ103_4_0" index="0" speed="13.89" length="14.40" shape="607.20,501.60 592.80,501.60"/>
    </edge>
    <edge id=":gneJ103_5" function="internal">
        <lane id=":gneJ103_5_0" index="0" speed="8.00" length="14.19" shape="607.20,501.60 603.35,501.05 600.60,499.40 598.95,496.65 598.40,492.80"/>
    </edge>
    <edge id=":gneJ103_6" function="internal">
        <lane id=":gneJ103_6_0" index="0" speed="6.51" length="9.03" shape="601.60,492.80 601.95,495.25 603.00,497.00 604.75,498.05 607.20,498.40"/>
    </edge>
    <edge id=":gneJ103_7" function="internal">
        <lane id=":gneJ103_7_0" index="0" speed="13.89" length="14.40" shape="601.60,492.80 601.60,507.20"/>
    </edge>
    <edge id=":gneJ103_8" function="internal">
        <lane id=":gneJ103_8_0" index="0" speed="8.00" length="5.93" shape="601.60,492.80 601.05,496.65 600.00,498.40"/>
    </edge>
    <edge id=":gneJ103_13" function="internal">
        <lane id=":gneJ103_13_0" index="0" speed="8.00" length="8.26" shape="600.00,498.40 599.40,499.40 596.65,501.05 592.80,501.60"/>
    </edge>
    <edge id=":gneJ103_9" function="internal">
        <lane id=":gneJ103_9_0" index="0" speed="6.51" length="9.03" shape="592.80,498.40 595.25,498.05 597.00,497.00 598.05,495.25 598.40,492.80"/>
    </edge>
    <edge id=":gneJ103_10" function="internal">
        <lane id=":gneJ103_10_0" index="0" speed="13.89" length="14.40" shape="592.80,498.40 607.20,498.40"/>
    </edge>
    <edge id=":gneJ103_11" function="internal">
        <lane id=":gneJ103_11_0" index="0" speed="8.00" length="14.19" shape="592.80,498.40 596.65,498.95 599.40,500.60 601.05,503.35 601.60,507.20"/>
    </edge>
    <edge id=":gneJ104_0" function="internal">
        <lane id=":gneJ104_0_0" index="0" speed="6.51" length="9.03" shape="598.40,407.20 598.05,404.75 597.00,403.00 595.25,401.95 592.80,401.60"/>
    </edge>
    <edge id=":gneJ104_1" function="internal">
        <lane id=":gneJ104_1_0" index="0" speed="13.89" length="14.40" shape="598.40,407.20 598.40,392.80"/>
    </edge>
    <edge id=":gneJ104_2" function="internal">
        <lane id=":gneJ104_2_0" index="0" speed="8.00" length="5.93" shape="598.40,407.20 598.95,403.35 600.00,401.60"/>
    </edge>
    <edge id=":gneJ104_12" function="internal">
        <lane id=":gneJ104_12_0" index="0" speed="8.00" length="8.26" shape="600.00,401.60 600.60,400.60 603.35,398.95 607.20,398.40"/>
    </edge>
    <edge id=":gneJ104_3" function="internal">
        <lane id=":gneJ104_3_0" index="0" speed="6.51" length="9.03" shape="607.20,401.60 604.75,401.95 603.00,403.00 601.95,404.75 601.60,407.20"/>
    </edge>
    <edge id=":gneJ104_4" function="internal">
        <lane id=":gneJ104_4_0" index="0" speed="13.89" length="14.40" shape="607.20,401.60 592.80,401.60"/>
    </edge>
    <edge id=":gneJ104_5" function="internal">
        <lane id=":gneJ104_5_0" index="0" speed="8.00" length="14.19" shape="607.20,401.60 603.35,401.05 600.60,399.40 598.95,396.65 598.40,392.80"/>
    </edge>
    <edge id=":gneJ104_6" function="internal">
        <lane id=":gneJ104_6_0" index="0" speed="6.51" length="9.03" shape="601.60,392.80 601.95,395.25 603.00,397.00 604.75,398.05 607.20,398.40"/>
    </edge>
    <edge id=":gneJ104_7" function="internal">
        <lane id=":gneJ104_7_0" index="0" speed="13.89" length="14.40" shape="601.60,392.80 601.60,407.20"/>
    </edge>
    <edge id=":gneJ104_8" function="internal">
        <lane id=":gneJ104_8_0" index="0" speed="8.00" length="5.93" shape="601.60,392.80 601.05,396.65 600.00,398.40"/>
    </edge>
    <edge id=":gneJ104_13" function="internal">
        <lane id=":gneJ104_13_0" index="0" speed="8.00" length="8.26" shape="600.00,398.40 599.40,399.40 596.65,401.05 592.80,401.60"/>
    </edge>
    <edge id=":gneJ104_9" function="internal">
        <lane id=":gneJ104_9_0" index="0" speed="6.51" length="9.03" shape="592.80,398.40 595.25,398.05 597.00,397.00 598.05,395.25 598.40,392.80"/>
    </edge>
    <edge id=":gneJ104_10" function="internal">
        <lane id=":gneJ104_10_0" index="0" speed="13.89" length="14.40" shape="592.80,398.40 607.20,398.40"/>
    </edge>
    <edge id=":gneJ104_11" function="internal">
        <lane id=":gneJ104_11_0" index="0" speed="8.00" length="14.19" shape="592.80,398.40 596.65,398.95 599.40,400.60 601.05,403.35 601.60,407.20"/>
    </edge>
    <edge id=":gneJ105_0" function="internal">
        <lane id=":gneJ105_0_0" index="0" speed="6.51" length="9.03" shape="598.40,307.20 598.05,304.75 597.00,303.00 595.25,301.95 592.80,301.60"/>
    </edge>
    <edge id=":gneJ105_1" function="internal">
        <lane id=":gneJ105_1_0" index="0" speed="13.89" length="14.40" shape="598.40,307.20 598.40,292.80"/>
    </edge>
    <edge id=":gneJ105_2" function="internal">
        <lane id=":gneJ105_2_0" index="0" speed="8.00" length="5.93" shape="598.40,307.20 598.95,303.35 600.00,301.60"/>
    </edge>
    <edge id=":gneJ105_12" function="internal">
        <lane id=":gneJ105_12_0" index="0" speed="8.00" length="8.26" shape="600.00,301.60 600.60,300.60 603.35,298.95 607.20,298.40"/>
    </edge>
    <edge id=":gneJ105_3" function="internal">
        <lane id=":gneJ105_3_0" index="0" speed="6.51" length="9.03" shape="607.20,301.60 604.75,301.95 603.00,303.00 601.95,304.75 601.60,307.20"/>
    </edge>
    <edge id=":gneJ105_4" function="internal">
        <lane id=":gneJ105_4_0" index="0" speed="13.89" length="14.40" shape="607.20,301.60 592.80,301.60"/>
    </edge>
    <edge id=":gneJ105_5" function="internal">
        <lane id=":gneJ105_5_0" index="0" speed="8.00" length="14.19" shape="607.20,301.60 603.35,301.05 600.60,299.40 598.95,296.65 598.40,292.80"/>
    </edge>
    <edge id=":gneJ105_6" function="internal">
        <lane id=":gneJ105_6_0" index="0" speed="6.51" length="9.03" shape="601.60,292.80 601.95,295.25 603.00,297.00 604.75,298.05 607.20,298.40"/>
    </edge>
    <edge id=":gneJ105_7" function="internal">
        <lane id=":gneJ105_7_0" index="0" speed="13.89" length="14.40" shape="601.60,292.80 601.60,307.20"/>
    </edge>
    <edge id=":gneJ105_8" function="internal">
        <lane id=":gneJ105_8_0" index="0" speed="8.00" length="5.93" shape="601.60,292.80 601.05,296.65 600.00,298.40"/>
    </edge>
    <edge id=":gneJ105_13" function="internal">
        <lane id=":gneJ105_13_0" index="0" speed="8.00" length="8.26" shape="600.00,298.40 599.40,299.40 596.65,301.05 592.80,301.60"/>
    </edge>
    <edge id=":gneJ105_9" function="internal">
        <lane id=":gneJ105_9_0" index="0" speed="6.51" length="9.03" shape="592.80,298.40 595.25,298.05 597.00,297.00 598.05,295.25 598.40,292.80"/>
    </edge>
    <edge id=":gneJ105_10" function="internal">
        <lane id=":gneJ105_10_0" index="0" speed="13.89" length="14.40" shape="592.80,298.40 607.20,298.40"/>
    </edge>
    <edge id=":gneJ105_11" function="internal">
        <lane id=":gneJ105_11_0" index="0" speed="8.00" length="14.19" shape="592.80,298.40 596.65,298.95 599.40,300.60 601.05,303.35 601.60,307.20"/>
    </edge>
    <edge id=":gneJ106_0" function="internal">
        <lane id=":gneJ106_0_0" index="0" speed="6.51" length="9.03" shape="598.40,207.20 598.05,204.75 597.00,203.00 595.25,201.95 592.80,201.60"/>
    </edge>
    <edge id=":gneJ106_1" function="internal">
        <lane id=":gneJ106_1_0" index="0" speed="13.89" length="14.40" shape="598.40,207.20 598.40,192.80"/>
    </edge>
    <edge id=":gneJ106_2" function="internal">
        <lane id=":gneJ106_2_0" index="0" speed="8.00" length="5.93" shape="598.40,207.20 598.95,203.35 600.00,201.60"/>
    </edge>
    <edge id=":gneJ106_12" function="internal">
        <lane id=":gneJ106_12_0" index="0" speed="8.00" length="8.26" shape="600.00,201.60 600.60,200.60 603.35,198.95 607.20,198.40"/>
    </edge>
    <edge id=":gneJ106_3" function="internal">
        <lane id=":gneJ106_3_0" index="0" speed="6.51" length="9.03" shape="607.20,201.60 604.75,201.95 603.00,203.00 601.95,204.75 601.60,207.20"/>
    </edge>
    <edge id=":gneJ106_4" function="internal">
        <lane id=":gneJ106_4_0" index="0" speed="13.89" length="14.40" shape="607.20,201.60 592.80,201.60"/>
    </edge>
    <edge id=":gneJ106_5" function="internal">
        <lane id=":gneJ106_5_0" index="0" speed="8.00" length="14.19" shape="607.20,201.60 603.35,201.05 600.60,199.40 598.95,196.65 598.40,192.80"/>
    </edge>
    <edge id=":gneJ106_6" function="internal">
        <lane id=":gneJ106_6_0" index="0" speed="6.51" length="9.03" shape="601.60,192.80 601.95,195.25 603.00,197.00 604.75,198.05 607.20,198.40"/>
    </edge>
    <edge id=":gneJ106_7" function="internal">
        <lane id=":gneJ106_7_0" index="0" speed="13.89" length="14.40" shape="601.60,192.80 601.60,207.20"/>
    </edge>
    <edge id=":gneJ106_8" function="internal">
        <lane id=":gneJ106_8_0" index="0" speed="8.00" length="5.93" shape="601.60,192.80 601.05,196.65 600.00,198.40"/>
    </edge>
    <edge id=":gneJ106_13" function="internal">
        <lane id=":gneJ106_13_0" index="0" speed="8.00" length="8.26" shape="600.00,198.40 599.40,199.40 596.65,201.05 592.80,201.60"/>
    </edge>
    <edge id=":gneJ106_9" function="internal">
        <lane id=":gneJ106_9_0" index="0" speed="6.51" length="9.03" shape="592.80,198.40 595.25,198.05 597.00,197.00 598.05,195.25 598.40,192.80"/>
    </edge>
    <edge id=":gneJ106_10" function="internal">
        <lane id=":gneJ106_10_0" index="0" speed="13.89" length="14.40" shape="592.80,198.40 607.20,198.40"/>
    </edge>
    <edge id=":gneJ106_11" function="internal">
        <lane id=":gneJ106_11_0" index="0" speed="8.00" length="14.19" shape="592.80,198.40 596.65,198.95 599.40,200.60 601.05,203.35 601.60,207.20"/>
    </edge>
    <edge id=":gneJ107_0" function="internal">
        <lane id=":gneJ107_0_0" index="0" speed="6.51" length="9.03" shape="598.40,107.20 598.05,104.75 597.00,103.00 595.25,101.95 592.80,101.60"/>
    </edge>
    <edge id=":gneJ107_1" function="internal">
        <lane id=":gneJ107_1_0" index="0" speed="13.89" length="14.40" shape="598.40,107.20 598.40,92.80"/>
    </edge>
    <edge id=":gneJ107_2" function="internal">
        <lane id=":gneJ107_2_0" index="0" speed="8.00" length="5.93" shape="598.40,107.20 598.95,103.35 600.00,101.60"/>
    </edge>
    <edge id=":gneJ107_12" function="internal">
        <lane id=":gneJ107_12_0" index="0" speed="8.00" length="8.26" shape="600.00,101.60 600.60,100.60 603.35,98.95 607.20,98.40"/>
    </edge>
    <edge id=":gneJ107_3" function="internal">
        <lane id=":gneJ107_3_0" index="0" speed="6.51" length="9.03" shape="607.20,101.60 604.75,101.95 603.00,103.00 601.95,104.75 601.60,107.20"/>
    </edge>
    <edge id=":gneJ107_4" function="internal">
        <lane id=":gneJ107_4_0" index="0" speed="13.89" length="14.40" shape="607.20,101.60 592.80,101.60"/>
    </edge>
    <edge id=":gneJ107_5" function="internal">
        <lane id=":gneJ107_5_0" index="0" speed="8.00" length="14.19" shape="607.20,101.60 603.35,101.05 600.60,99.40 598.95,96.65 598.40,92.80"/>
    </edge>
    <edge id=":gneJ107_6" function="internal">
        <lane id=":gneJ107_6_0" index="0" speed="6.51" length="9.03" shape="601.60,92.80 601.95,95.25 603.00,97.00 604.75,98.05 607.20,98.40"/>
    </edge>
    <edge id=":gneJ107_7" function="internal">
        <lane id=":gneJ107_7_0" index="0" speed="13.89" length="14.40" shape="601.60,92.80 601.60,107.20"/>
    </edge>
    <edge id=":gneJ107_8" function="internal">
        <lane id=":gneJ107_8_0" index="0" speed="8.00" length="5.93" shape="601.60,92.80 601.05,96.65 600.00,98.40"/>
    </edge>
    <edge id=":gneJ107_13" function="internal">
        <lane id=":gneJ107_13_0" index="0" speed="8.00" length="8.26" shape="600.00,98.40 599.40,99.40 596.65,101.05 592.80,101.60"/>
    </edge>
    <edge id=":gneJ107_9" function="internal">
        <lane id=":gneJ107_9_0" index="0" speed="6.51" length="9.03" shape="592.80,98.40 595.25,98.05 597.00,97.00 598.05,95.25 598.40,92.80"/>
    </edge>
    <edge id=":gneJ107_10" function="internal">
        <lane id=":gneJ107_10_0" index="0" speed="13.89" length="14.40" shape="592.80,98.40 607.20,98.40"/>
    </edge>
    <edge id=":gneJ107_11" function="internal">
        <lane id=":gneJ107_11_0" index="0" speed="8.00" length="14.19" shape="592.80,98.40 596.65,98.95 599.40,100.60 601.05,103.35 601.60,107.20"/>
    </edge>
    <edge id=":gneJ108_0" function="internal">
        <lane id=":gneJ108_0_0" index="0" speed="6.51" length="9.03" shape="598.40,7.20 598.05,4.75 597.00,3.00 595.25,1.95 592.80,1.60"/>
    </edge>
    <edge id=":gneJ108_1" function="internal">
        <lane id=":gneJ108_1_0" index="0" speed="13.89" length="14.40" shape="598.40,7.20 598.40,-7.20"/>
    </edge>
    <edge id=":gneJ108_2" function="internal">
        <lane id=":gneJ108_2_0" index="0" speed="8.00" length="5.93" shape="598.40,7.20 598.95,3.35 600.00,1.60"/>
    </edge>
    <edge id=":gneJ108_12" function="internal">
        <lane id=":gneJ108_12_0" index="0" speed="8.00" length="8.26" shape="600.00,1.60 600.60,0.60 603.35,-1.05 607.20,-1.60"/>
    </edge>
    <edge id=":gneJ108_3" function="internal">
        <lane id=":gneJ108_3_0" index="0" speed="6.51" length="9.03" shape="607.20,1.60 604.75,1.95 603.00,3.00 601.95,4.75 601.60,7.20"/>
    </edge>
    <edge id=":gneJ108_4" function="internal">
        <lane id=":gneJ108_4_0" index="0" speed="13.89" length="14.40" shape="607.20,1.60 592.80,1.60"/>
    </edge>
    <edge id=":gneJ108_5" function="internal">
        <lane id=":gneJ108_5_0" index="0" speed="8.00" length="14.19" shape="607.20,1.60 603.35,1.05 600.60,-0.60 598.95,-3.35 598.40,-7.20"/>
    </edge>
    <edge id=":gneJ108_6" function="internal">
        <lane id=":gneJ108_6_0" index="0" speed="6.51" length="9.03" shape="601.60,-7.20 601.95,-4.75 603.00,-3.00 604.75,-1.95 607.20,-1.60"/>
    </edge>
    <edge id=":gneJ108_7" function="internal">
        <lane id=":gneJ108_7_0" index="0" speed="13.89" length="14.40" shape="601.60,-7.20 601.60,7.20"/>
    </edge>
    <edge id=":gneJ108_8" function="internal">
        <lane id=":gneJ108_8_0" index="0" speed="8.00" length="5.93" shape="601.60,-7.20 601.05,-3.35 600.00,-1.60"/>
    </edge>
    <edge id=":gneJ108_13" function="internal">
        <lane id=":gneJ108_13_0" index="0" speed="8.00" length="8.26" shape="600.00,-1.60 599.40,-0.60 596.65,1.05 592.80,1.60"/>
    </edge>
    <edge id=":gneJ108_9" function="internal">
        <lane id=":gneJ108_9_0" index="0" speed="6.51" length="9.03" shape="592.80,-1.60 595.25,-1.95 597.00,-3.00 598.05,-4.75 598.40,-7.20"/>
    </edge>
    <edge id=":gneJ108_10" function="internal">
        <lane id=":gneJ108_10_0" index="0" speed="13.89" length="14.40" shape="592.80,-1.60 607.20,-1.60"/>
    </edge>
    <edge id=":gneJ108_11" function="internal">
        <lane id=":gneJ108_11_0" index="0" speed="8.00" length="14.19" shape="592.80,-1.60 596.65,-1.05 599.40,0.60 601.05,3.35 601.60,7.20"/>
    </edge>
    <edge id=":gneJ109_0" function="internal">
        <lane id=":gneJ109_0_0" index="0" speed="6.51" length="9.03" shape="598.40,-92.80 598.05,-95.25 597.00,-97.00 595.25,-98.05 592.80,-98.40"/>
    </edge>
    <edge id=":gneJ109_1" function="internal">
        <lane id=":gneJ109_1_0" index="0" speed="13.89" length="14.40" shape="598.40,-92.80 598.40,-107.20"/>
    </edge>
    <edge id=":gneJ109_2" function="internal">
        <lane id=":gneJ109_2_0" index="0" speed="8.00" length="5.93" shape="598.40,-92.80 598.95,-96.65 600.00,-98.40"/>
    </edge>
    <edge id=":gneJ109_12" function="internal">
        <lane id=":gneJ109_12_0" index="0" speed="8.00" length="8.26" shape="600.00,-98.40 600.60,-99.40 603.35,-101.05 607.20,-101.60"/>
    </edge>
    <edge id=":gneJ109_3" function="internal">
        <lane id=":gneJ109_3_0" index="0" speed="6.51" length="9.03" shape="607.20,-98.40 604.75,-98.05 603.00,-97.00 601.95,-95.25 601.60,-92.80"/>
    </edge>
    <edge id=":gneJ109_4" function="internal">
        <lane id=":gneJ109_4_0" index="0" speed="13.89" length="14.40" shape="607.20,-98.40 592.80,-98.40"/>
    </edge>
    <edge id=":gneJ109_5" function="internal">
        <lane id=":gneJ109_5_0" index="0" speed="8.00" length="14.19" shape="607.20,-98.40 603.35,-98.95 600.60,-100.60 598.95,-103.35 598.40,-107.20"/>
    </edge>
    <edge id=":gneJ109_6" function="internal">
        <lane id=":gneJ109_6_0" index="0" speed="6.51" length="9.03" shape="601.60,-107.20 601.95,-104.75 603.00,-103.00 604.75,-101.95 607.20,-101.60"/>
    </edge>
    <edge id=":gneJ109_7" function="internal">
        <lane id=":gneJ109_7_0" index="0" speed="13.89" length="14.40" shape="601.60,-107.20 601.60,-92.80"/>
    </edge>
    <edge id=":gneJ109_8" function="internal">
        <lane id=":gneJ109_8_0" index="0" speed="8.00" length="5.93" shape="601.60,-107.20 601.05,-103.35 600.00,-101.60"/>
    </edge>
    <edge id=":gneJ109_13" function="internal">
        <lane id=":gneJ109_13_0" index="0" speed="8.00" length="8.26" shape="600.00,-101.60 599.40,-100.60 596.65,-98.95 592.80,-98.40"/>
    </edge>
    <edge id=":gneJ109_9" function="internal">
        <lane id=":gneJ109_9_0" index="0" speed="6.51" length="9.03" shape="592.80,-101.60 595.25,-101.95 597.00,-103.00 598.05,-104.75 598.40,-107.20"/>
    </edge>
    <edge id=":gneJ109_10" function="internal">
        <lane id=":gneJ109_10_0" index="0" speed="13.89" length="14.40" shape="592.80,-101.60 607.20,-101.60"/>
    </edge>
    <edge id=":gneJ109_11" function="internal">