<?xml version="1.0" encoding="UTF-8"?>
<!-- generated on 2022-07-04 14:34:19.347619 by randomTrips.py UNKNOWN
  options: -n /Users/davidemolinelli/Documents/phd/repositories/ride-sharing-simulator/net_config/temp_net.net.xml -o /Users/davidemolinelli/Documents/phd/repositories/ride-sharing-simulator/net_config/temp_random_trips.trips.xml
-->
<routes xmlns:xsi="http://www.w3.org/2001/XMLSchema-instance" xsi:noNamespaceSchemaLocation="http://sumo.dlr.de/xsd/routes_file.xsd">
    <trip id="0" depart="0.00" from="414948594#0" to="-148846997#10"/>
    <trip id="1" depart="1.00" from="-85562494#5" to="-619568425#0"/>
    <trip id="2" depart="2.00" from="533053745#2" to="425516678#10"/>
    <trip id="3" depart="3.00" from="86303732#3" to="-255168048#14"/>
    <trip id="4" depart="4.00" from="224199013#0" to="-148902179#0"/>
    <trip id="5" depart="5.00" from="-588340573#1" to="26987989#3"/>
    <trip id="6" depart="6.00" from="-148846997#8" to="-48211062#1"/>
    <trip id="7" depart="7.00" from="417099343#1" to="28841115#6"/>
    <trip id="8" depart="8.00" from="-588340583#0" to="364480068#2"/>
    <trip id="9" depart="9.00" from="717618718#1" to="-111586254#0"/>
    <trip id="10" depart="10.00" from="714571120#0" to="479850696#0"/>
    <trip id="11" depart="11.00" from="-8920980#2" to="-399142440#11"/>
    <trip id="12" depart="12.00" from="8920215" to="-8920521#9"/>
    <trip id="13" depart="13.00" from="-263108751#2" to="-26938867#12"/>
    <trip id="14" depart="14.00" from="792996596" to="397146706#3"/>
    <trip id="15" depart="15.00" from="717320099#1" to="527829976#1"/>
    <trip id="16" depart="16.00" from="28738276#5" to="8922564#4"/>
    <trip id="17" depart="17.00" from="120256351#0" to="30028988#0"/>
    <trip id="18" depart="18.00" from="766116624#1" to="398681180#0"/>
    <trip id="19" depart="19.00" from="85562496#3" to="329596844#2"/>
    <trip id="20" depart="20.00" from="48211381#5" to="-224316517"/>
    <trip id="21" depart="21.00" from="-619568437#3" to="-87297164#16"/>
    <trip id="22" depart="22.00" from="-254759909#2" to="-680402692#1"/>
    <trip id="23" depart="23.00" from="-27041194#1" to="-85562590#4"/>
    <trip id="24" depart="24.00" from="406946353" to="1041093696#1"/>
    <trip id="25" depart="25.00" from="1043648247#3" to="-514650998#0"/>
    <trip id="26" depart="26.00" from="-777160086#3" to="8918950#1"/>
    <trip id="27" depart="27.00" from="417099315#0" to="397153598#0"/>
    <trip id="28" depart="28.00" from="-414979750#0" to="527829973#3"/>
    <trip id="29" depart="29.00" from="-399163470#0" to="12437582#19"/>
    <trip id="30" depart="30.00" from="923797388" to="414979750#3"/>
    <trip id="31" depart="31.00" from="30029703#7" to="446598001#9"/>
    <trip id="32" depart="32.00" from="777160086#4" to="674757884#1"/>
    <trip id="33" depart="33.00" from="-620169741" to="-158606183#5"/>
    <trip id="34" depart="34.00" from="-8917406#2" to="-84733302#10"/>
    <trip id="35" depart="35.00" from="-514650996#2" to="8919163#9"/>
    <trip id="36" depart="36.00" from="85562596#2" to="-8917819#1"/>
    <trip id="37" depart="37.00" from="417101714#5" to="146155388#0"/>
    <trip id="38" depart="38.00" from="8915951#1" to="254396708#4"/>
    <trip id="39" depart="39.00" from="-771409386#0" to="-714571120#2"/>
    <trip id="40" depart="40.00" from="30029878#6" to="-771409386#1"/>
    <trip id="41" depart="41.00" from="35977367#7" to="87297168#0"/>
    <trip id="42" depart="42.00" from="148846997#10" to="-588340587#3"/>
    <trip id="43" depart="43.00" from="983872712#0" to="27041250#1"/>
    <trip id="44" depart="44.00" from="-26276984#0" to="-224316524#1"/>
    <trip id="45" depart="45.00" from="-27397715#0" to="399178699#2"/>
    <trip id="46" depart="46.00" from="706531343#3" to="224199017#3"/>
    <trip id="47" depart="47.00" from="-24335484#0" to="133376106#2"/>
    <trip id="48" depart="48.00" from="968937450#1" to="28231602#3"/>
    <trip id="49" depart="49.00" from="8922263#0" to="85562496#0"/>
    <trip id="50" depart="50.00" from="-12437582#22" to="514592845#1"/>
    <trip id="51" depart="51.00" from="437384202" to="287958607#0"/>
    <trip id="52" depart="52.00" from="-777160086#2" to="414979751#6"/>
    <trip id="53" depart="53.00" from="-27570786#6" to="224941795#1"/>
    <trip id="54" depart="54.00" from="254297754#0" to="8919811#0"/>
    <trip id="55" depart="55.00" from="85562592#2" to="-771409386#6"/>
    <trip id="56" depart="56.00" from="26938293#4" to="-425516652#2"/>
    <trip id="57" depart="57.00" from="88597563#0" to="85562562#0"/>
    <trip id="58" depart="58.00" from="-88142686#1" to="414948593#4"/>
    <trip id="59" depart="59.00" from="397152942#0" to="-398677930#1"/>
    <trip id="60" depart="60.00" from="619979116#1" to="288065246#4"/>
    <trip id="61" depart="61.00" from="680243310#0" to="283512618#2"/>
    <trip id="62" depart="62.00" from="-100400941#4" to="-8919173#18"/>
    <trip id="63" depart="63.00" from="-143666206#3" to="8917406#0"/>
    <trip id="64" depart="64.00" from="85562607" to="769489484#9"/>
    <trip id="65" depart="65.00" from="-8916563#5" to="-228196396#1"/>
    <trip id="66" depart="66.00" from="85562602#7" to="8919215#0"/>
    <trip id="67" depart="67.00" from="-254971069#2" to="255168048#13"/>
    <trip id="68" depart="68.00" from="-254299112#8" to="619979095#2"/>
    <trip id="69" depart="69.00" from="620169744#1" to="-30029878#10"/>
    <trip id="70" depart="70.00" from="254759909#3" to="29059495#2"/>
    <trip id="71" depart="71.00" from="-771409386#2" to="85562580#0"/>
    <trip id="72" depart="72.00" from="224199017#10" to="-533053745#2"/>
    <trip id="73" depart="73.00" from="288065246#0" to="527829976#2"/>
    <trip id="74" depart="74.00" from="-48211062#2" to="-8917303#6"/>
    <trip id="75" depart="75.00" from="966201482#5" to="417099347#0"/>
    <trip id="76" depart="76.00" from="225516700#5" to="27166406#2"/>
    <trip id="77" depart="77.00" from="-288265975#5" to="-619568433#1"/>
    <trip id="78" depart="78.00" from="-8920521#4" to="364475235#0"/>
    <trip id="79" depart="79.00" from="-620169745#4" to="-590045031"/>
    <trip id="80" depart="80.00" from="-254299125#3" to="399883475#3"/>
    <trip id="81" depart="81.00" from="-619979114" to="88396403#2"/>
    <trip id="82" depart="82.00" from="85562484#1" to="-254396709#0"/>
    <trip id="83" depart="83.00" from="-684030185#1" to="425516640#2"/>
    <trip id="84" depart="84.00" from="-549859218#1" to="-30198539#2"/>
    <trip id="85" depart="85.00" from="8918656#0" to="30831533#4"/>
    <trip id="86" depart="86.00" from="254758126#0" to="682030989#0"/>
    <trip id="87" depart="87.00" from="717329386#2" to="-446598044#2"/>
    <trip id="88" depart="88.00" from="-26938418#8" to="224384010#1"/>
    <trip id="89" depart="89.00" from="224199017#3" to="254756523"/>
    <trip id="90" depart="90.00" from="527829971#1" to="425516655#4"/>
    <trip id="91" depart="91.00" from="91185850#0" to="-26988007#3"/>
    <trip id="92" depart="92.00" from="148847005#0" to="-8921237#0"/>
    <trip id="93" depart="93.00" from="85562496#3" to="-717618719"/>
    <trip id="94" depart="94.00" from="-446598001#9" to="24335485#1"/>
    <trip id="95" depart="95.00" from="224199013#0" to="-85562602#2"/>
    <trip id="96" depart="96.00" from="-717376553#0" to="8917020#0"/>
    <trip id="97" depart="97.00" from="23876482" to="85562498#1"/>
    <trip id="98" depart="98.00" from="29059495#3" to="-224384021#0"/>
    <trip id="99" depart="99.00" from="997431147#1" to="770522137#5"/>
    <trip id="100" depart="100.00" from="8922024#0" to="8917280#0"/>
    <trip id="101" depart="101.00" from="792996611#1" to="-405296220#0"/>
    <trip id="102" depart="102.00" from="254984059#0" to="-563092565#7"/>
    <trip id="103" depart="103.00" from="148846999#1" to="-23924508#2"/>
    <trip id="104" depart="104.00" from="120256351#4" to="91185867#1"/>
    <trip id="105" depart="105.00" from="-771409386#3" to="681758090"/>
    <trip id="106" depart="106.00" from="254297764#0" to="224199018#0"/>
    <trip id="107" depart="107.00" from="8920215" to="966201482#7"/>
    <trip id="108" depart="108.00" from="30029703#17" to="513976293#0"/>
    <trip id="109" depart="109.00" from="-398677930#2" to="-88396406#4"/>
    <trip id="110" depart="110.00" from="8922002#2" to="34128471#2"/>
    <trip id="111" depart="111.00" from="28808560#1" to="588340587#0"/>
    <trip id="112" depart="112.00" from="-225847524#2" to="35977367#7"/>
    <trip id="113" depart="113.00" from="26938418#8" to="84733302#21"/>
    <trip id="114" depart="114.00" from="-399142440#12" to="8920521#7"/>
    <trip id="115" depart="115.00" from="-254759909#5" to="-431375109#1"/>
    <trip id="116" depart="116.00" from="396980347#0" to="425516661#0"/>
    <trip id="117" depart="117.00" from="-681183503" to="-28841115#0"/>
    <trip id="118" depart="118.00" from="85644959#17" to="-714571119#3"/>
    <trip id="119" depart="119.00" from="396980345#1" to="399142440#0"/>
    <trip id="120" depart="120.00" from="212214144#4" to="35977367#3"/>
    <trip id="121" depart="121.00" from="27397539#1" to="8918369#0"/>
    <trip id="122" depart="122.00" from="-48211487#0" to="513703277"/>
    <trip id="123" depart="123.00" from="-686246694" to="146155388#1"/>
    <trip id="124" depart="124.00" from="425516652#0" to="-88572877#4"/>
    <trip id="125" depart="125.00" from="-8917692#1" to="598743250#1"/>
    <trip id="126" depart="126.00" from="-254396709#2" to="254306572"/>
    <trip id="127" depart="127.00" from="997431145#0" to="968937450#0"/>
    <trip id="128" depart="128.00" from="-254396719#0" to="-563092565#2"/>
    <trip id="129" depart="129.00" from="-771409386#3" to="8918194#2"/>
    <trip id="130" depart="130.00" from="85644912#3" to="85644906#1"/>
    <trip id="131" depart="131.00" from="1043648247#0" to="-399156531#0"/>
    <trip id="132" depart="132.00" from="770522069#2" to="48211230#0"/>
    <trip id="133" depart="133.00" from="398070547#3" to="91187856#6"/>
    <trip id="134" depart="134.00" from="417101709#1" to="-120256351#1"/>
    <trip id="135" depart="135.00" from="719449213#1" to="-88559691#3"/>
    <trip id="136" depart="136.00" from="425516617#0" to="8919020#4"/>
    <trip id="137" depart="137.00" from="-30198539#3" to="-287958606#0"/>
    <trip id="138" depart="138.00" from="-27166421#0" to="30029172#14"/>
    <trip id="139" depart="139.00" from="-84733302#5" to="397146707#2"/>
    <trip id="140" depart="140.00" from="513881331#1" to="-500871824#3"/>
    <trip id="141" depart="141.00" from="406581247#0" to="-775576585"/>
    <trip id="142" depart="142.00" from="255330035#3" to="88396403#1"/>
    <trip id="143" depart="143.00" from="779123575#1" to="-263108751#9"/>
    <trip id="144" depart="144.00" from="224199017#3" to="-85562557"/>
    <trip id="145" depart="145.00" from="-1024144576#0" to="667569398#4"/>
    <trip id="146" depart="146.00" from="408586838#1" to="-770522074#9"/>
    <trip id="147" depart="147.00" from="563092570" to="30025866#3"/>
    <trip id="148" depart="148.00" from="224316517" to="-12437582#10"/>
    <trip id="149" depart="149.00" from="-254756522#12" to="85644923#0"/>
    <trip id="150" depart="150.00" from="88142686#0" to="28841117#1"/>
    <trip id="151" depart="151.00" from="770522074#5" to="355526646#2"/>
    <trip id="152" depart="152.00" from="-397135720" to="-30029721#2"/>
    <trip id="153" depart="153.00" from="-8916567#1" to="87376666#3"/>
    <trip id="154" depart="154.00" from="706545922#2" to="85562496#0"/>
    <trip id="155" depart="155.00" from="87376660#0" to="-514650998#5"/>
    <trip id="156" depart="156.00" from="-717376551#1" to="-27043603#2"/>
    <trip id="157" depart="157.00" from="680402686" to="85644931#1"/>
    <trip id="158" depart="158.00" from="148902182#3" to="399142440#3"/>
    <trip id="159" depart="159.00" from="-398677930#1" to="8917411#0"/>
    <trip id="160" depart="160.00" from="85562513#0" to="910361857#4"/>
    <trip id="161" depart="161.00" from="717666275#0" to="85644919#10"/>
    <trip id="162" depart="162.00" from="-146155465#5" to="546027231"/>
    <trip id="163" depart="163.00" from="-8919609#4" to="8917692#0"/>
    <trip id="164" depart="164.00" from="713758731#2" to="85562513#0"/>
    <trip id="165" depart="165.00" from="717666275#0" to="-792996603"/>
    <trip id="166" depart="166.00" from="686246687#1" to="-27167298#9"/>
    <trip id="167" depart="167.00" from="85562572#1" to="85562483#0"/>
    <trip id="168" depart="168.00" from="-598020852#0" to="719449212#1"/>
    <trip id="169" depart="169.00" from="254396709#2" to="-8916563#3"/>
    <trip id="170" depart="170.00" from="706545921#0" to="-620169745#0"/>
    <trip id="171" depart="171.00" from="-146155127#1" to="-468450103#8"/>
    <trip id="172" depart="172.00" from="-8919356#0" to="85562514#0"/>
    <trip id="173" depart="173.00" from="8921316#0" to="-85562602#7"/>
    <trip id="174" depart="174.00" from="414979751#7" to="148847000#1"/>
    <trip id="175" depart="175.00" from="91182066#0" to="287958606#4"/>
    <trip id="176" depart="176.00" from="8919118#0" to="-287958606#0"/>
    <trip id="177" depart="177.00" from="8922151#4" to="-425516652#1"/>
    <trip id="178" depart="178.00" from="8920946#1" to="-777349728#1"/>
    <trip id="179" depart="179.00" from="-27167298#10" to="224384035#1"/>
    <trip id="180" depart="180.00" from="527829966#0" to="-8917421"/>
    <trip id="181" depart="181.00" from="397146713#0" to="27043603#0"/>
    <trip id="182" depart="182.00" from="133376114#3" to="32931798#0"/>
    <trip id="183" depart="183.00" from="-718500671#1" to="502795939#0"/>
    <trip id="184" depart="184.00" from="-1017046697" to="8917205#4"/>
    <trip id="185" depart="185.00" from="28805008#2" to="514139249"/>
    <trip id="186" depart="186.00" from="581126715#0" to="425516650#3"/>
    <trip id="187" depart="187.00" from="1030276935#0" to="-254299128#2"/>
    <trip id="188" depart="188.00" from="425516617#14" to="-8919609#6"/>
    <trip id="189" depart="189.00" from="-8917303#6" to="792996608"/>
    <trip id="190" depart="190.00" from="514139249" to="-88572965#1"/>
    <trip id="191" depart="191.00" from="-8916765#1" to="161631001"/>
    <trip id="192" depart="192.00" from="148847001#5" to="-87376697#2"/>
    <trip id="193" depart="193.00" from="-30029703#18" to="224199013#0"/>
    <trip id="194" depart="194.00" from="8919136#5" to="425516678#15"/>
    <trip id="195" depart="195.00" from="87376697#0" to="398293220"/>
    <trip id="196" depart="196.00" from="-88559669#1" to="29023741#1"/>
    <trip id="197" depart="197.00" from="-100400941#3" to="-85644959#15"/>
    <trip id="198" depart="198.00" from="224316524#0" to="34128713#0"/>
    <trip id="199" depart="199.00" from="417101713#1" to="254756522#1"/>
    <trip id="200" depart="200.00" from="228186482#0" to="-563092565#7"/>
    <trip id="201" depart="201.00" from="254758127#0" to="87376691#4"/>
    <trip id="202" depart="202.00" from="706545922#1" to="-414979750#2"/>
    <trip id="203" depart="203.00" from="-254971068#0" to="27054209#1"/>
    <trip id="204" depart="204.00" from="406548396#0" to="-8920519#9"/>
    <trip id="205" depart="205.00" from="720011527#1" to="598020856#3"/>
    <trip id="206" depart="206.00" from="425516655#0" to="-619568433#0"/>
    <trip id="207" depart="207.00" from="-479996014#0" to="-146155465#6"/>
    <trip id="208" depart="208.00" from="-706549349#0" to="254759909#9"/>
    <trip id="209" depart="209.00" from="797255352#2" to="-254466686#4"/>
    <trip id="210" depart="210.00" from="198877615#6" to="399883470"/>
    <trip id="211" depart="211.00" from="-468450103#3" to="477214641#4"/>
    <trip id="212" depart="212.00" from="263108751#2" to="-713758731#1"/>
    <trip id="213" depart="213.00" from="417101721#1" to="-1050287138#3"/>
    <trip id="214" depart="214.00" from="598020854#1" to="665118328#1"/>
    <trip id="215" depart="215.00" from="-27054184#2" to="224200967"/>
    <trip id="216" depart="216.00" from="-417103319" to="8920514#0"/>
    <trip id="217" depart="217.00" from="27146036#2" to="-224384019#0"/>
    <trip id="218" depart="218.00" from="-717375293#0" to="792996611#1"/>
    <trip id="219" depart="219.00" from="254299112#7" to="713758728#8"/>
    <trip id="220" depart="220.00" from="425516635#2" to="91190520#3"/>
    <trip id="221" depart="221.00" from="396983321#1" to="8919519#2"/>
    <trip id="222" depart="222.00" from="85644961#0" to="398123035#2"/>
    <trip id="223" depart="223.00" from="513977501#2" to="26944132#1"/>
    <trip id="224" depart="224.00" from="769489483#3" to="29023741#1"/>
    <trip id="225" depart="225.00" from="87297164#5" to="585655708#5"/>
    <trip id="226" depart="226.00" from="254759909#1" to="-769489483#2"/>
    <trip id="227" depart="227.00" from="-713758738" to="408600295#1"/>
    <trip id="228" depart="228.00" from="620169744#1" to="27167298#5"/>
    <trip id="229" depart="229.00" from="399163469#0" to="-85562530"/>
    <trip id="230" depart="230.00" from="-254756526#3" to="-85644949#0"/>
    <trip id="231" depart="231.00" from="-84733302#24" to="-8919118#1"/>
    <trip id="232" depart="232.00" from="288065247#2" to="-331111652#1"/>
    <trip id="233" depart="233.00" from="-655718937#4" to="47108420#1"/>
    <trip id="234" depart="234.00" from="498269730" to="-25372932#10"/>
    <trip id="235" depart="235.00" from="148902187#4" to="288265975#2"/>
    <trip id="236" depart="236.00" from="204884397#1" to="-513971227#0"/>
    <trip id="237" depart="237.00" from="219171860#6" to="88142690#4"/>
    <trip id="238" depart="238.00" from="35977367#3" to="475767105#0"/>
    <trip id="239" depart="239.00" from="850162149" to="620169744#3"/>
    <trip id="240" depart="240.00" from="12437582#1" to="-1054649984"/>
    <trip id="241" depart="241.00" from="-91185847#4" to="619378866#2"/>
    <trip id="242" depart="242.00" from="84733302#23" to="8919808#3"/>
    <trip id="243" depart="243.00" from="212214144#2" to="588340583#1"/>
    <trip id="244" depart="244.00" from="28841120" to="397146706#0"/>
    <trip id="245" depart="245.00" from="-588340583#1" to="-588340587#4"/>
    <trip id="246" depart="246.00" from="224384035#1" to="-148902178#3"/>
    <trip id="247" depart="247.00" from="-8920519#10" to="425516688#0"/>
    <trip id="248" depart="248.00" from="148902178#2" to="-399883472"/>
    <trip id="249" depart="249.00" from="254756522#6" to="-30029721#3"/>
    <trip id="250" depart="250.00" from="399156530#2" to="-148847000#0"/>
    <trip id="251" depart="251.00" from="143666212#1" to="30030485#7"/>
    <trip id="252" depart="252.00" from="-148846999#0" to="416878315#1"/>
    <trip id="253" depart="253.00" from="-30831508#4" to="254466686#6"/>
    <trip id="254" depart="254.00" from="-224384010#2" to="12437582#16"/>
    <trip id="255" depart="255.00" from="-514650998#2" to="-8919440#1"/>
    <trip id="256" depart="256.00" from="619979095#2" to="12437582#16"/>
    <trip id="257" depart="257.00" from="598020858#1" to="769490512#1"/>
    <trip id="258" depart="258.00" from="-717666275#0" to="-254968959#3"/>
    <trip id="259" depart="259.00" from="-143666206#2" to="288065247#0"/>
    <trip id="260" depart="260.00" from="997431151" to="-91185861#2"/>
    <trip id="261" depart="261.00" from="417099347#0" to="680783335"/>
    <trip id="262" depart="262.00" from="417101699#0" to="619378868#3"/>
    <trip id="263" depart="263.00" from="8919475#1" to="-48211062#4"/>
    <trip id="264" depart="264.00" from="-143666209#0" to="-398464710#1"/>
    <trip id="265" depart="265.00" from="-30029703#1" to="425516646"/>
    <trip id="266" depart="266.00" from="30030485#2" to="-588340578#1"/>
    <trip id="267" depart="267.00" from="480159322#0" to="620169771#4"/>
    <trip id="268" depart="268.00" from="-399883476" to="397148932"/>
    <trip id="269" depart="269.00" from="588340583#0" to="-28738271#3"/>
    <trip id="270" depart="270.00" from="721044166#2" to="8921173"/>
    <trip id="271" depart="271.00" from="-27167298#0" to="-148846997#5"/>
    <trip id="272" depart="272.00" from="-8917205#5" to="425516678#15"/>
    <trip id="273" depart="273.00" from="8920514#0" to="146155465#6"/>
    <trip id="274" depart="274.00" from="513676831#3" to="-254756526#2"/>
    <trip id="275" depart="275.00" from="468204140#1" to="399178699#0"/>
    <trip id="276" depart="276.00" from="-27041250#0" to="674757876#2"/>
    <trip id="277" depart="277.00" from="797255352#7" to="397136323#2"/>
    <trip id="278" depart="278.00" from="-288265975#5" to="91185847#3"/>
    <trip id="279" depart="279.00" from="681183494" to="-91181759#3"/>
    <trip id="280" depart="280.00" from="224316518#4" to="1050251486#1"/>
    <trip id="281" depart="281.00" from="26987989#1" to="-8921638#0"/>
    <trip id="282" depart="282.00" from="797255352#1" to="734004334#3"/>
    <trip id="283" depart="283.00" from="-27050841#0" to="8920521#7"/>
    <trip id="284" depart="284.00" from="406946351#1" to="765359242"/>
    <trip id="285" depart="285.00" from="500871824#3" to="225432457#0"/>
    <trip id="286" depart="286.00" from="527857394#1" to="8921236#2"/>
    <trip id="287" depart="287.00" from="-84733302#13" to="717376553#1"/>
    <trip id="288" depart="288.00" from="28805008#0" to="254971070#7"/>
    <trip id="289" depart="289.00" from="224384030#2" to="527829989#0"/>
    <trip id="290" depart="290.00" from="-777349734#1" to="84733302#14"/>
    <trip id="291" depart="291.00" from="769489483#4" to="-255168048#12"/>
    <trip id="292" depart="292.00" from="85644918#1" to="-713758731#0"/>
    <trip id="293" depart="293.00" from="254756521#1" to="397269728#5"/>
    <trip id="294" depart="294.00" from="120256351#4" to="-148902178#1"/>
    <trip id="295" depart="295.00" from="814624643#0" to="-425516661#3"/>
    <trip id="296" depart="296.00" from="-514650998#5" to="706550133#1"/>
    <trip id="297" depart="297.00" from="-8921115#1" to="85644912#3"/>
    <trip id="298" depart="298.00" from="48211062#10" to="-85562550#0"/>
    <trip id="299" depart="299.00" from="-12437582#13" to="8919431#1"/>
    <trip id="300" depart="300.00" from="-254971069#2" to="514527342#0"/>
    <trip id="301" depart="301.00" from="255330035#3" to="619568436#4"/>
    <trip id="302" depart="302.00" from="468204140#1" to="417092428#0"/>
    <trip id="303" depart="303.00" from="26198325#2" to="706534240#4"/>
    <trip id="304" depart="304.00" from="-263108751#4" to="-606336337"/>
    <trip id="305" depart="305.00" from="468450103#11" to="-8916564#1"/>
    <trip id="306" depart="306.00" from="349663308" to="254758127#7"/>
    <trip id="307" depart="307.00" from="283512618#1" to="224200971#0"/>
    <trip id="308" depart="308.00" from="587388483#1" to="-8919699#1"/>
    <trip id="309" depart="309.00" from="48211196#1" to="-853534455"/>
    <trip id="310" depart="310.00" from="-717618720#2" to="-28841115#6"/>
    <trip id="311" depart="311.00" from="-468204139#0" to="-28841114#2"/>
    <trip id="312" depart="312.00" from="28738276#3" to="619979116#3"/>
    <trip id="313" depart="313.00" from="-425516678#17" to="-588340573#0"/>
    <trip id="314" depart="314.00" from="254971070#5" to="514675661"/>
    <trip id="315" depart="315.00" from="910361858#0" to="27398071#2"/>
    <trip id="316" depart="316.00" from="-85644919#0" to="-27041250#0"/>
    <trip id="317" depart="317.00" from="-468450103#13" to="-620169743#1"/>
    <trip id="318" depart="318.00" from="-425516650#0" to="-133376114#3"/>
    <trip id="319" depart="319.00" from="286003244#7" to="-85562519#1"/>
    <trip id="320" depart="320.00" from="8922610#1" to="30029172#2"/>
    <trip id="321" depart="321.00" from="478789264" to="-30029703#5"/>
    <trip id="322" depart="322.00" from="85562541#0" to="26276984#2"/>
    <trip id="323" depart="323.00" from="85562576#1" to="30832455#1"/>
    <trip id="324" depart="324.00" from="254756528" to="225847529#4"/>
    <trip id="325" depart="325.00" from="-425516678#11" to="-224384029"/>
    <trip id="326" depart="326.00" from="8919163#1" to="254968934"/>
    <trip id="327" depart="327.00" from="734004334#0" to="148847001#5"/>
    <trip id="328" depart="328.00" from="-254466686#3" to="399883466#1"/>
    <trip id="329" depart="329.00" from="-224941796#3" to="-398070547#1"/>
    <trip id="330" depart="330.00" from="30030283#0" to="-8916463#1"/>
    <trip id="331" depart="331.00" from="945922295" to="-28808571#2"/>
    <trip id="332" depart="332.00" from="619979119#3" to="397146714#1"/>
    <trip id="333" depart="333.00" from="706527718#6" to="-619568437#1"/>
    <trip id="334" depart="334.00" from="27167298#9" to="25372932#1"/>
    <trip id="335" depart="335.00" from="23157849#1" to="85562494#1"/>
    <trip id="336" depart="336.00" from="923797389#3" to="-8916563#5"/>
    <trip id="337" depart="337.00" from="399142440#2" to="397269728#0"/>
    <trip id="338" depart="338.00" from="563092565#2" to="8919394#0"/>
    <trip id="339" depart="339.00" from="-513881326#0" to="-514675663"/>
    <trip id="340" depart="340.00" from="417400763#0" to="-399142440#8"/>
    <trip id="341" depart="341.00" from="-417000954#2" to="-254756522#7"/>
    <trip id="342" depart="342.00" from="-1020512096#5" to="25372932#1"/>
    <trip id="343" depart="343.00" from="396980341#0" to="-87297164#7"/>
    <trip id="344" depart="344.00" from="-656703950" to="500871824#3"/>
    <trip id="345" depart="345.00" from="48211196#2" to="254297764#0"/>
    <trip id="346" depart="346.00" from="461084153#11" to="8917062#0"/>
    <trip id="347" depart="347.00" from="686246696#0" to="399163465#0"/>
    <trip id="348" depart="348.00" from="417540331" to="8918194#5"/>
    <trip id="349" depart="349.00" from="224199018#6" to="28841115#3"/>
    <trip id="350" depart="350.00" from="417099304" to="88463831#4"/>
    <trip id="351" depart="351.00" from="742702372" to="-254396711#0"/>
    <trip id="352" depart="352.00" from="-399883466#3" to="-8916767#0"/>
    <trip id="353" depart="353.00" from="588340587#3" to="30831529#0"/>
    <trip id="354" depart="354.00" from="-85644959#12" to="-30029703#10"/>
    <trip id="355" depart="355.00" from="461084153#5" to="480159322#5"/>
    <trip id="356" depart="356.00" from="8919163#9" to="26938338#3"/>
    <trip id="357" depart="357.00" from="263108751#1" to="-254759930#4"/>
    <trip id="358" depart="358.00" from="-204967528#3" to="224384017#2"/>
    <trip id="359" depart="359.00" from="-8919118#2" to="-717728150#2"/>
    <trip id="360" depart="360.00" from="-26276984#3" to="8920741"/>
    <trip id="361" depart="361.00" from="770522137#2" to="31779991#2"/>
    <trip id="362" depart="362.00" from="8919608#3" to="997431149#0"/>
    <trip id="363" depart="363.00" from="425516653#2" to="-84733302#23"/>
    <trip id="364" depart="364.00" from="-206629822" to="619568425#2"/>
    <trip id="365" depart="365.00" from="254758114#8" to="417101699#1"/>
    <trip id="366" depart="366.00" from="8916375#2" to="-425516661#1"/>
    <trip id="367" depart="367.00" from="35977396#3" to="406944779#1"/>
    <trip id="368" depart="368.00" from="26276984#2" to="-263108751#13"/>
    <trip id="369" depart="369.00" from="-8922640#1" to="-8920223#2"/>
    <trip id="370" depart="370.00" from="425516648#1" to="853534455"/>
    <trip id="371" depart="371.00" from="-8919440#6" to="47108401#8"/>
    <trip id="372" depart="372.00" from="-85644959#1" to="8919173#5"/>
    <trip id="373" depart="373.00" from="717765728#1" to="29059495#4"/>
    <trip id="374" depart="374.00" from="254297763" to="-8917819#0"/>
    <trip id="375" depart="375.00" from="-8919136#5" to="8922151#5"/>
    <trip id="376" depart="376.00" from="148902178#1" to="27054195#1"/>
    <trip id="377" depart="377.00" from="91190520#5" to="417166165#1"/>
    <trip id="378" depart="378.00" from="28808571#1" to="202317711#0"/>
    <trip id="379" depart="379.00" from="-431375109#1" to="1030276935#0"/>
    <trip id="380" depart="380.00" from="619535770#1" to="399163465#2"/>
    <trip id="381" depart="381.00" from="619590730#0" to="-500871824#2"/>
    <trip id="382" depart="382.00" from="29059461#2" to="8917303#6"/>
    <trip id="383" depart="383.00" from="225516700#5" to="479850696#1"/>
    <trip id="384" depart="384.00" from="-28841114#2" to="8922564#4"/>
    <trip id="385" depart="385.00" from="397152177#3" to="-706531343#2"/>
    <trip id="386" depart="386.00" from="-399142440#5" to="29328570#3"/>
    <trip id="387" depart="387.00" from="30025866#4" to="-26765928#5"/>
    <trip id="388" depart="388.00" from="935446073#7" to="88597575#2"/>
    <trip id="389" depart="389.00" from="254396719#0" to="-288065247#2"/>
    <trip id="390" depart="390.00" from="769490512#0" to="26938247#1"/>
    <trip id="391" depart="391.00" from="513703278#0" to="27041194#5"/>
    <trip id="392" depart="392.00" from="-853534672#2" to="770522074#9"/>
    <trip id="393" depart="393.00" from="91181775#0" to="-713493922"/>
    <trip id="394" depart="394.00" from="29328570#4" to="133376114#7"/>
    <trip id="395" depart="395.00" from="8916767#1" to="27041194#0"/>
    <trip id="396" depart="396.00" from="85562608#4" to="85562513#0"/>
    <trip id="397" depart="397.00" from="-85562519#0" to="706527718#4"/>
    <trip id="398" depart="398.00" from="202317711#2" to="8918318#0"/>
    <trip id="399" depart="399.00" from="26988009#4" to="721674320#2"/>
    <trip id="400" depart="400.00" from="-85644912#5" to="-88463831#4"/>
    <trip id="401" depart="401.00" from="359898622#0" to="997431146#0"/>
    <trip id="402" depart="402.00" from="256400251#1" to="-397148936#1"/>
    <trip id="403" depart="403.00" from="28805008#3" to="-8922610#1"/>
    <trip id="404" depart="404.00" from="30025866#2" to="288265976#2"/>
    <trip id="405" depart="405.00" from="254297765#1" to="-8919163#3"/>
    <trip id="406" depart="406.00" from="-443021962#0" to="478789267"/>
    <trip id="407" depart="407.00" from="30831533#7" to="-681514649#0"/>
    <trip id="408" depart="408.00" from="674757881#2" to="-224199017#4"/>